chandeg.con: written by SWAT+ editor v1.2.3 on 2020-10-30 18:16
      id  name                gis_id          area           lat           lon          elev      lcha               wst       cst      ovfl      rule   out_tot       obj_typ    obj_id       hyd_typ          frac  
       1  cha01                    1    8572.71073      40.43891     -88.63540             0         1     sta4046n8872w         0         0         0         1           cha         2           tot       1.00000  
       2  cha02                    2   29360.64188      40.41826     -88.47431             0         2     sta4043n8850w         0         0         0         1           cha         6           tot       1.00000  
       3  cha03                    3   15330.96230      40.46904     -88.40875             0         3     sta4043n8850w         0         0         0         1           cha         6           tot       1.00000  
       4  cha04                    4   12629.36905      40.33534     -88.47158             0         4     sta4024n8846w         0         0         0         1           cha         2           tot       1.00000  
       5  cha05                    5    5241.43374      40.38461     -88.26536             0         5     sta4033n8828w         0         0         0         1           cha         6           tot       1.00000  
       6  cha06                    6   61484.30030      40.34638     -88.34806             0         6     sta4037n8833w         0         0         0         1           cha         8           tot       1.00000  
       7  cha07                    7    6735.70068      40.31912     -88.21048             0         7     sta4033n8828w         0         0         0         1           cha        10           tot       1.00000  
       8  cha08                    8   65786.38127      40.30681     -88.38083             0         8     sta4037n8833w         0         0         0         1           cha        11           tot       1.00000  
       9  cha09                    9    5076.26622      40.34113     -88.25099             0         9     sta4033n8828w         0         0         0         1           cha        11           tot       1.00000  
      10  cha10                   10   12965.35871      40.25530     -88.30868             0        10     sta4028n8829w         0         0         0         1           cha        11           tot       1.00000  
      11  cha11                   11   93343.92397      40.23516     -88.39313             0        11     sta4020n8842w         0         0         0         1           cha        12           tot       1.00000  
      12  cha12                   12  112151.68750      40.14106     -88.49013             0        12     sta4017n8854w         0         0         0         1           cha        14           tot       1.00000  
      13  cha13                   13   13819.91742      40.04953     -88.50466             0        13     sta4009n8840w         0         0         0         1           cha        14           tot       1.00000  
      14  cha14                   14  140534.67898      40.03742     -88.57060             0        14     sta4009n8861w         0         0         0         1           cha        20           tot       1.00000  
      15  cha15                   15   11612.66031      40.10393     -88.73445             0        15     sta4005n8874w         0         0         0         1           cha        19           tot       1.00000  
      16  cha16                   16   10527.70723      40.04168     -88.86454             0        16     sta4001n8886w         0         0         0         1           cha        19           tot       1.00000  
      17  cha17                   17    5632.02563      39.95548     -88.64758             0        17     sta3994n8867w         0         0         0         1           cha        20           tot       1.00000  
      18  cha18                   18    7481.33386      39.99709     -88.95321             0        18     sta3996n8899w         0         0         0         1           cha        23           tot       1.00000  
      19  cha19                   19   33620.82452      39.99167     -88.77678             0        19     sta3999n8874w         0         0         0         1           cha        21           tot       1.00000  
      20  cha20                   20  161457.21393      40.01076     -88.66428             0        20     sta3998n8860w         0         0         0         1           cha        21           tot       1.00000  
      21  cha21                   21  204307.09165      39.91156     -88.78872             0        21     sta3990n8876w         0         0         0         1           res         1           tot       1.00000  
      22  cha22                   22    7918.66730      39.87408     -89.11820             0        22     sta3990n8908w         0         0         0         1           cha        28           tot       1.00000  
      23  cha23                   23   22644.94793      39.91135     -88.99123             0        23     sta3996n8899w         0         0         0         1           cha        26           tot       1.00000  
      24  cha24                   24  240541.46121      39.83996     -88.97874             0        24     sta3986n8902w         0         0         0         1           cha        26           tot       1.00000  
      25  cha25                   25  239466.16073      39.80497     -88.97327             0        25     sta3978n8896w         0         0         0         1           cha        24           tot       1.00000  
      26  cha26                   26  264762.52027      39.85287     -89.02659             0        26     sta3986n8902w         0         0         0         1           cha        32           tot       1.00000  
      27  cha28                   28  368060.43079      39.78140     -89.39172             0        27     sta3983n8940w         0         0         0         0  
      28  cha29                   29   16367.34813      39.86530     -89.22989             0        28     sta3984n8924w         0         0         0         1           cha        29           tot       1.00000  
      29  cha30                   30  294220.13605      39.80876     -89.14191             0        29     sta3982n8912w         0         0         0         1           cha        27           tot       1.00000  
      30  cha31                   31   14641.68944      39.83366     -89.39557             0        30     sta3983n8940w         0         0         0         1           cha        27           tot       1.00000  
      31  cha32                   32   21385.63117      39.75784     -89.19994             0        31     sta3984n8924w         0         0         0         1           cha        27           tot       1.00000  
      32  cha33                   33  269745.59924      39.80952     -89.04897             0        32     sta3977n8905w         0         0         0         1           cha        29           tot       1.00000  
      33  cha34                   34    6940.84785      39.77395     -88.82002             0        33     sta3979n8882w         0         0         0         1           res         1           tot       1.00000  
      34  cha35                   35   25260.90190      39.72142     -89.39431             0        34     sta3976n8944w         0         0         0         1           cha        27           tot       1.00000  
      35  cha36                   36   11673.80466      39.72234     -89.08922             0        35     sta3977n8905w         0         0         0         1           cha        31           tot       1.00000  
      36  cha37                   37    6983.02512      39.70856     -89.25168             0        36     sta3977n8932w         0         0         0         1           cha        34           tot       1.00000  
      37  cha38                   38    9548.40017      39.65850     -89.24431             0        37     sta3977n8932w         0         0         0         1           cha        34           tot       1.00000  
      38  cha39                   39    7369.47536      40.44042     -88.31901             0        38     sta4047n8830w         0         0         0         1           cha         6           tot       1.00000  
      39  cha40                   40     879.23114      40.28642     -88.49258             0        39     sta4024n8846w         0         0         0         1           cha         4           tot       1.00000  
      40  cha41                   41    6459.47763      40.18297     -88.51866             0        40     sta4017n8854w         0         0         0         1           cha        12           tot       1.00000  
      41  cha42                   42    6767.33786      40.12644     -88.41324             0        41     sta4009n8840w         0         0         0         1           cha        13           tot       1.00000  
      42  cha43                   43   14016.43474      40.13999     -88.62175             0        42     sta4009n8861w         0         0         0         1           cha        14           tot       1.00000  
      43  cha44                   44    5128.78072      40.07668     -88.80640             0        43     sta4005n8874w         0         0         0         1           cha        19           tot       1.00000  
      44  cha45                   45    7252.68913      39.91699     -88.91603             0        44     sta3990n8888w         0         0         0         1           cha        23           tot       1.00000  
      45  cha46                   46    5046.43785      39.83598     -88.81876             0        45     sta3979n8882w         0         0         0         1           res         1           tot       1.00000  
      46  cha47                   47    4332.81375      39.76260     -88.94759             0        46     sta3978n8896w         0         0         0         1           res         1           tot       1.00000  
      47  cha48                   48    6100.69196      39.71978     -88.89939             0        47     sta3978n8896w         0         0         0         1           res         1           tot       1.00000  
