channel-lte.cha: written by SWAT+ editor v1.2.3 on 2020-10-30 18:16
      id  name                       cha_ini           cha_hyd           cha_sed           cha_nut  
       1  cha01                     initcha1          hydcha01           sedcha1           nutcha1  
       2  cha02                     initcha1          hydcha02           sedcha1           nutcha1  
       3  cha03                     initcha1          hydcha03           sedcha1           nutcha1  
       4  cha04                     initcha1          hydcha04           sedcha1           nutcha1  
       5  cha05                     initcha1          hydcha05           sedcha1           nutcha1  
       6  cha06                     initcha1          hydcha06           sedcha3           nutcha1  
       7  cha07                     initcha1          hydcha07           sedcha1           nutcha1  
       8  cha08                     initcha1          hydcha08           sedcha1           nutcha1  
       9  cha09                     initcha1          hydcha09           sedcha1           nutcha1  
      10  cha10                     initcha1          hydcha10           sedcha1           nutcha1  
      11  cha11                     initcha1          hydcha11           sedcha3           nutcha1  
      12  cha12                     initcha1          hydcha12           sedcha3           nutcha1  
      13  cha13                     initcha1          hydcha13           sedcha1           nutcha1  
      14  cha14                     initcha1          hydcha14           sedcha3           nutcha1  
      15  cha15                     initcha1          hydcha15           sedcha1           nutcha1  
      16  cha16                     initcha1          hydcha16           sedcha1           nutcha1  
      17  cha17                     initcha1          hydcha17           sedcha1           nutcha1  
      18  cha18                     initcha1          hydcha18           sedcha1           nutcha1  
      19  cha19                     initcha1          hydcha19           sedcha1           nutcha1  
      20  cha20                     initcha1          hydcha20           sedcha3           nutcha1  
      21  cha21                     initcha1          hydcha21           sedcha3           nutcha1  
      22  cha22                     initcha1          hydcha22           sedcha1           nutcha1  
      23  cha23                     initcha1          hydcha23           sedcha1           nutcha1  
      24  cha24                     initcha1          hydcha24           sedcha4           nutcha1  
      25  cha25                     initcha1          hydcha25           sedcha2           nutcha1  
      26  cha26                     initcha2          hydcha26           sedcha5           nutcha2  
      27  cha28                     initcha3          hydcha28           sedcha5           nutcha2  
      28  cha29                     initcha1          hydcha29           sedcha1           nutcha1  
      29  cha30                     initcha3          hydcha30           sedcha5           nutcha2  
      30  cha31                     initcha1          hydcha31           sedcha1           nutcha1  
      31  cha32                     initcha1          hydcha32           sedcha1           nutcha1  
      32  cha33                     initcha3          hydcha33           sedcha5           nutcha2  
      33  cha34                     initcha1          hydcha34           sedcha1           nutcha1  
      34  cha35                     initcha1          hydcha35           sedcha1           nutcha1  
      35  cha36                     initcha1          hydcha36           sedcha1           nutcha1  
      36  cha37                     initcha1          hydcha37           sedcha1           nutcha1  
      37  cha38                     initcha1          hydcha38           sedcha1           nutcha1  
      38  cha39                     initcha1          hydcha39           sedcha1           nutcha1  
      39  cha40                     initcha1          hydcha40           sedcha1           nutcha1  
      40  cha41                     initcha1          hydcha41           sedcha1           nutcha1  
      41  cha42                     initcha1          hydcha42           sedcha1           nutcha1  
      42  cha43                     initcha1          hydcha43           sedcha1           nutcha1  
      43  cha44                     initcha1          hydcha44           sedcha1           nutcha1  
      44  cha45                     initcha1          hydcha45           sedcha1           nutcha1  
      45  cha46                     initcha1          hydcha46           sedcha1           nutcha1  
      46  cha47                     initcha1          hydcha47           sedcha1           nutcha1  
      47  cha48                     initcha1          hydcha48           sedcha1           nutcha1  
