hydrology.hyd: written by SWAT+ editor v1.2.3 on 2020-11-02 07:04
name                 lat_ttime       lat_sed      tile_sed       can_max          esco          epco   orgn_enrich   orgp_enrich  evap_pothole       bio_mix         perco      lat_orgn      lat_orgp      harg_pet     cn_plntet  
hyd0001                0.00000       0.65000       0.65000       0.80000       0.98000       0.85000       0.70000       0.70000       0.50000       0.20000       0.20000       0.00000       0.00000       0.00000       0.50000  
hyd0002                0.00000       0.65000       0.65000       0.80000       0.98000       0.85000       0.70000       0.70000       0.50000       0.20000       0.20000       0.00000       0.00000       0.00000       0.50000  
hyd0003                0.00000       0.65000       0.65000       0.80000       0.98000       0.85000       0.70000       0.70000       0.50000       0.20000       0.20000       0.00000       0.00000       0.00000       0.50000  
hyd0004                0.00000       0.65000       0.65000       0.80000       0.98000       0.85000       0.70000       0.70000       0.50000       0.20000       0.20000       0.00000       0.00000       0.00000       0.50000  
hyd0005                0.00000       0.65000       0.65000       0.80000       0.98000       0.85000       0.70000       0.70000       0.50000       0.20000       0.20000       0.00000       0.00000       0.00000       0.50000  
hyd0006                0.00000       0.65000       0.65000       0.80000       0.98000       0.85000       0.70000       0.70000       0.50000       0.20000       0.20000       0.00000       0.00000       0.00000       0.50000  
hyd0007                0.00000       0.65000       0.65000       0.80000       0.98000       0.85000       0.70000       0.70000       0.50000       0.20000       0.20000       0.00000       0.00000       0.00000       0.50000  
hyd0008                0.00000       0.65000       0.65000       0.80000       0.98000       0.85000       0.70000       0.70000       0.50000       0.20000       0.20000       0.00000       0.00000       0.00000       0.50000  
hyd0009                0.00000       0.65000       0.65000       0.80000       0.98000       0.85000       0.70000       0.70000       0.50000       0.20000       0.20000       0.00000       0.00000       0.00000       0.50000  
hyd0010                0.00000       0.65000       0.65000       0.80000       0.98000       0.85000       0.70000       0.70000       0.50000       0.20000       0.20000       0.00000       0.00000       0.00000       0.50000  
hyd0011                0.00000       0.65000       0.65000       0.80000       0.98000       0.85000       0.70000       0.70000       0.50000       0.20000       0.20000       0.00000       0.00000       0.00000       0.50000  
hyd0012                0.00000       0.65000       0.65000       0.80000       0.98000       0.85000       0.70000       0.70000       0.50000       0.20000       0.20000       0.00000       0.00000       0.00000       0.50000  
hyd0013                0.00000       0.65000       0.65000       0.80000       0.98000       0.85000       0.70000       0.70000       0.50000       0.20000       0.20000       0.00000       0.00000       0.00000       0.50000  
hyd0014                0.00000       0.65000       0.65000       0.80000       0.98000       0.85000       0.70000       0.70000       0.50000       0.20000       0.20000       0.00000       0.00000       0.00000       0.50000  
hyd0015                0.00000       0.65000       0.65000       0.80000       0.98000       0.85000       0.70000       0.70000       0.50000       0.20000       0.20000       0.00000       0.00000       0.00000       0.50000  
hyd0016                0.00000       0.65000       0.65000       0.80000       0.98000       0.85000       0.70000       0.70000       0.50000       0.20000       0.20000       0.00000       0.00000       0.00000       0.50000  
hyd0017                0.00000       0.65000       0.65000       0.80000       0.98000       0.85000       0.70000       0.70000       0.50000       0.20000       0.20000       0.00000       0.00000       0.00000       0.50000  
hyd0018                0.00000       0.65000       0.65000       0.80000       0.98000       0.85000       0.70000       0.70000       0.50000       0.20000       0.20000       0.00000       0.00000       0.00000       0.50000  
hyd0019                0.00000       0.65000       0.65000       0.80000       0.98000       0.85000       0.70000       0.70000       0.50000       0.20000       0.20000       0.00000       0.00000       0.00000       0.50000  
hyd0020                0.00000       0.65000       0.65000       0.80000       0.98000       0.85000       0.70000       0.70000       0.50000       0.20000       0.20000       0.00000       0.00000       0.00000       0.50000  
hyd0021                0.00000       0.65000       0.65000       0.80000       0.98000       0.85000       0.70000       0.70000       0.50000       0.20000       0.20000       0.00000       0.00000       0.00000       0.50000  
hyd0022                0.00000       0.65000       0.65000       0.80000       0.98000       0.85000       0.70000       0.70000       0.50000       0.20000       0.20000       0.00000       0.00000       0.00000       0.50000  
hyd0023                0.00000       0.65000       0.65000       0.80000       0.98000       0.85000       0.70000       0.70000       0.50000       0.20000       0.20000       0.00000       0.00000       0.00000       0.50000  
hyd0024                0.00000       0.65000       0.65000       0.80000       0.98000       0.85000       0.70000       0.70000       0.50000       0.20000       0.20000       0.00000       0.00000       0.00000       0.50000  
hyd0025                0.00000       0.65000       0.65000       0.80000       0.98000       0.85000       0.70000       0.70000       0.50000       0.20000       0.20000       0.00000       0.00000       0.00000       0.50000  
hyd0026                0.00000       0.65000       0.65000       0.80000       0.98000       0.85000       0.70000       0.70000       0.50000       0.20000       0.20000       0.00000       0.00000       0.00000       0.50000  
hyd0027                0.00000       0.65000       0.65000       0.80000       0.98000       0.85000       0.70000       0.70000       0.50000       0.20000       0.20000       0.00000       0.00000       0.00000       0.50000  
hyd0028                0.00000       0.65000       0.65000       0.80000       0.98000       0.85000       0.70000       0.70000       0.50000       0.20000       0.20000       0.00000       0.00000       0.00000       0.50000  
hyd0029                0.00000       0.65000       0.65000       0.80000       0.98000       0.85000       0.70000       0.70000       0.50000       0.20000       0.20000       0.00000       0.00000       0.00000       0.50000  
hyd0030                0.00000       0.65000       0.65000       0.80000       0.98000       0.85000       0.70000       0.70000       0.50000       0.20000       0.20000       0.00000       0.00000       0.00000       0.50000  
hyd0031                0.00000       0.65000       0.65000       0.80000       0.98000       0.85000       0.70000       0.70000       0.50000       0.20000       0.20000       0.00000       0.00000       0.00000       0.50000  
hyd0032                0.00000       0.65000       0.65000       0.80000       0.98000       0.85000       0.70000       0.70000       0.50000       0.20000       0.20000       0.00000       0.00000       0.00000       0.50000  
hyd0033                0.00000       0.65000       0.65000       0.80000       0.98000       0.85000       0.70000       0.70000       0.50000       0.20000       0.20000       0.00000       0.00000       0.00000       0.50000  
hyd0034                0.00000       0.65000       0.65000       0.80000       0.98000       0.85000       0.70000       0.70000       0.50000       0.20000       0.20000       0.00000       0.00000       0.00000       0.50000  
hyd0035                0.00000       0.65000       0.65000       0.80000       0.98000       0.85000       0.70000       0.70000       0.50000       0.20000       0.20000       0.00000       0.00000       0.00000       0.50000  
hyd0036                0.00000       0.65000       0.65000       0.80000       0.98000       0.85000       0.70000       0.70000       0.50000       0.20000       0.20000       0.00000       0.00000       0.00000       0.50000  
hyd0037                0.00000       0.65000       0.65000       0.80000       0.98000       0.85000       0.70000       0.70000       0.50000       0.20000       0.20000       0.00000       0.00000       0.00000       0.50000  
hyd0038                0.00000       0.65000       0.65000       0.80000       0.98000       0.85000       0.70000       0.70000       0.50000       0.20000       0.20000       0.00000       0.00000       0.00000       0.50000  
hyd0039                0.00000       0.65000       0.65000       0.80000       0.98000       0.85000       0.70000       0.70000       0.50000       0.20000       0.20000       0.00000       0.00000       0.00000       0.50000  
hyd0040                0.00000       0.65000       0.65000       0.80000       0.98000       0.85000       0.70000       0.70000       0.50000       0.20000       0.20000       0.00000       0.00000       0.00000       0.50000  
hyd0041                0.00000       0.65000       0.65000       0.80000       0.98000       0.85000       0.70000       0.70000       0.50000       0.20000       0.20000       0.00000       0.00000       0.00000       0.50000  
hyd0042                0.00000       0.65000       0.65000       0.80000       0.98000       0.85000       0.70000       0.70000       0.50000       0.20000       0.20000       0.00000       0.00000       0.00000       0.50000  
hyd0043                0.00000       0.65000       0.65000       0.80000       0.98000       0.85000       0.70000       0.70000       0.50000       0.20000       0.20000       0.00000       0.00000       0.00000       0.50000  
hyd0044                0.00000       0.65000       0.65000       0.80000       0.98000       0.85000       0.70000       0.70000       0.50000       0.20000       0.20000       0.00000       0.00000       0.00000       0.50000  
hyd0045                0.00000       0.65000       0.65000       0.80000       0.98000       0.85000       0.70000       0.70000       0.50000       0.20000       0.20000       0.00000       0.00000       0.00000       0.50000  
hyd0046                0.00000       0.65000       0.65000       0.80000       0.98000       0.85000       0.70000       0.70000       0.50000       0.20000       0.20000       0.00000       0.00000       0.00000       0.50000  
hyd0047                0.00000       0.65000       0.65000       0.80000       0.98000       0.85000       0.70000       0.70000       0.50000       0.20000       0.20000       0.00000       0.00000       0.00000       0.50000  
hyd0048                0.00000       0.65000       0.65000       0.80000       0.98000       0.85000       0.70000       0.70000       0.50000       0.20000       0.20000       0.00000       0.00000       0.00000       0.50000  
hyd0049                0.00000       0.65000       0.65000       0.80000       0.98000       0.85000       0.70000       0.70000       0.50000       0.20000       0.20000       0.00000       0.00000       0.00000       0.50000  
hyd0050                0.00000       0.65000       0.65000       0.80000       0.98000       0.85000       0.70000       0.70000       0.50000       0.20000       0.20000       0.00000       0.00000       0.00000       0.50000  
hyd0051                0.00000       0.65000       0.65000       0.80000       0.98000       0.85000       0.70000       0.70000       0.50000       0.20000       0.20000       0.00000       0.00000       0.00000       0.50000  
hyd0052                0.00000       0.65000       0.65000       0.80000       0.98000       0.85000       0.70000       0.70000       0.50000       0.20000       0.20000       0.00000       0.00000       0.00000       0.50000  
hyd0053                0.00000       0.65000       0.65000       0.80000       0.98000       0.85000       0.70000       0.70000       0.50000       0.20000       0.20000       0.00000       0.00000       0.00000       0.50000  
hyd0054                0.00000       0.65000       0.65000       0.80000       0.98000       0.85000       0.70000       0.70000       0.50000       0.20000       0.20000       0.00000       0.00000       0.00000       0.50000  
hyd0055                0.00000       0.65000       0.65000       0.80000       0.98000       0.85000       0.70000       0.70000       0.50000       0.20000       0.20000       0.00000       0.00000       0.00000       0.50000  
hyd0056                0.00000       0.65000       0.65000       0.80000       0.98000       0.85000       0.70000       0.70000       0.50000       0.20000       0.20000       0.00000       0.00000       0.00000       0.50000  
hyd0057                0.00000       0.65000       0.65000       0.80000       0.98000       0.85000       0.70000       0.70000       0.50000       0.20000       0.20000       0.00000       0.00000       0.00000       0.50000  
hyd0058                0.00000       0.65000       0.65000       0.80000       0.98000       0.85000       0.70000       0.70000       0.50000       0.20000       0.20000       0.00000       0.00000       0.00000       0.50000  
hyd0059                0.00000       0.65000       0.65000       0.80000       0.98000       0.85000       0.70000       0.70000       0.50000       0.20000       0.20000       0.00000       0.00000       0.00000       0.50000  
hyd0060                0.00000       0.65000       0.65000       0.80000       0.98000       0.85000       0.70000       0.70000       0.50000       0.20000       0.20000       0.00000       0.00000       0.00000       0.50000  
hyd0061                0.00000       0.65000       0.65000       0.80000       0.98000       0.85000       0.70000       0.70000       0.50000       0.20000       0.20000       0.00000       0.00000       0.00000       0.50000  
hyd0062                0.00000       0.65000       0.65000       0.80000       0.98000       0.85000       0.70000       0.70000       0.50000       0.20000       0.20000       0.00000       0.00000       0.00000       0.50000  
hyd0063                0.00000       0.65000       0.65000       0.80000       0.98000       0.85000       0.70000       0.70000       0.50000       0.20000       0.20000       0.00000       0.00000       0.00000       0.50000  
hyd0064                0.00000       0.65000       0.65000       0.80000       0.98000       0.85000       0.70000       0.70000       0.50000       0.20000       0.20000       0.00000       0.00000       0.00000       0.50000  
hyd0065                0.00000       0.65000       0.65000       0.80000       0.98000       0.85000       0.70000       0.70000       0.50000       0.20000       0.20000       0.00000       0.00000       0.00000       0.50000  
hyd0066                0.00000       0.65000       0.65000       0.80000       0.98000       0.85000       0.70000       0.70000       0.50000       0.20000       0.20000       0.00000       0.00000       0.00000       0.50000  
hyd0067                0.00000       0.65000       0.65000       0.80000       0.98000       0.85000       0.70000       0.70000       0.50000       0.20000       0.20000       0.00000       0.00000       0.00000       0.50000  
hyd0068                0.00000       0.65000       0.65000       0.80000       0.98000       0.85000       0.70000       0.70000       0.50000       0.20000       0.20000       0.00000       0.00000       0.00000       0.50000  
hyd0069                0.00000       0.65000       0.65000       0.80000       0.98000       0.85000       0.70000       0.70000       0.50000       0.20000       0.20000       0.00000       0.00000       0.00000       0.50000  
hyd0070                0.00000       0.65000       0.65000       0.80000       0.98000       0.85000       0.70000       0.70000       0.50000       0.20000       0.20000       0.00000       0.00000       0.00000       0.50000  
hyd0071                0.00000       0.65000       0.65000       0.80000       0.98000       0.85000       0.70000       0.70000       0.50000       0.20000       0.20000       0.00000       0.00000       0.00000       0.50000  
hyd0072                0.00000       0.65000       0.65000       0.80000       0.98000       0.85000       0.70000       0.70000       0.50000       0.20000       0.20000       0.00000       0.00000       0.00000       0.50000  
hyd0073                0.00000       0.65000       0.65000       0.80000       0.98000       0.85000       0.70000       0.70000       0.50000       0.20000       0.20000       0.00000       0.00000       0.00000       0.50000  
hyd0074                0.00000       0.65000       0.65000       0.80000       0.98000       0.85000       0.70000       0.70000       0.50000       0.20000       0.20000       0.00000       0.00000       0.00000       0.50000  
hyd0075                0.00000       0.65000       0.65000       0.80000       0.98000       0.85000       0.70000       0.70000       0.50000       0.20000       0.20000       0.00000       0.00000       0.00000       0.50000  
hyd0076                0.00000       0.65000       0.65000       0.80000       0.98000       0.85000       0.70000       0.70000       0.50000       0.20000       0.20000       0.00000       0.00000       0.00000       0.50000  
hyd0077                0.00000       0.65000       0.65000       0.80000       0.98000       0.85000       0.70000       0.70000       0.50000       0.20000       0.20000       0.00000       0.00000       0.00000       0.50000  
hyd0078                0.00000       0.65000       0.65000       0.80000       0.98000       0.85000       0.70000       0.70000       0.50000       0.20000       0.20000       0.00000       0.00000       0.00000       0.50000  
hyd0079                0.00000       0.65000       0.65000       0.80000       0.98000       0.85000       0.70000       0.70000       0.50000       0.20000       0.20000       0.00000       0.00000       0.00000       0.50000  
hyd0080                0.00000       0.65000       0.65000       0.80000       0.98000       0.85000       0.70000       0.70000       0.50000       0.20000       0.20000       0.00000       0.00000       0.00000       0.50000  
hyd0081                0.00000       0.65000       0.65000       0.80000       0.98000       0.85000       0.70000       0.70000       0.50000       0.20000       0.20000       0.00000       0.00000       0.00000       0.50000  
hyd0082                0.00000       0.65000       0.65000       0.80000       0.98000       0.85000       0.70000       0.70000       0.50000       0.20000       0.20000       0.00000       0.00000       0.00000       0.50000  
hyd0083                0.00000       0.65000       0.65000       0.80000       0.98000       0.85000       0.70000       0.70000       0.50000       0.20000       0.20000       0.00000       0.00000       0.00000       0.50000  
hyd0084                0.00000       0.65000       0.65000       0.80000       0.98000       0.85000       0.70000       0.70000       0.50000       0.20000       0.20000       0.00000       0.00000       0.00000       0.50000  
hyd0085                0.00000       0.65000       0.65000       0.80000       0.98000       0.85000       0.70000       0.70000       0.50000       0.20000       0.20000       0.00000       0.00000       0.00000       0.50000  
hyd0086                0.00000       0.65000       0.65000       0.80000       0.98000       0.85000       0.70000       0.70000       0.50000       0.20000       0.20000       0.00000       0.00000       0.00000       0.50000  
hyd0087                0.00000       0.65000       0.65000       0.80000       0.98000       0.85000       0.70000       0.70000       0.50000       0.20000       0.20000       0.00000       0.00000       0.00000       0.50000  
hyd0088                0.00000       0.65000       0.65000       0.80000       0.98000       0.85000       0.70000       0.70000       0.50000       0.20000       0.20000       0.00000       0.00000       0.00000       0.50000  
hyd0089                0.00000       0.65000       0.65000       0.80000       0.98000       0.85000       0.70000       0.70000       0.50000       0.20000       0.20000       0.00000       0.00000       0.00000       0.50000  
hyd0090                0.00000       0.65000       0.65000       0.80000       0.98000       0.85000       0.70000       0.70000       0.50000       0.20000       0.20000       0.00000       0.00000       0.00000       0.50000  
hyd0091                0.00000       0.65000       0.65000       0.80000       0.98000       0.85000       0.70000       0.70000       0.50000       0.20000       0.20000       0.00000       0.00000       0.00000       0.50000  
hyd0092                0.00000       0.65000       0.65000       0.80000       0.98000       0.85000       0.70000       0.70000       0.50000       0.20000       0.20000       0.00000       0.00000       0.00000       0.50000  
hyd0093                0.00000       0.65000       0.65000       0.80000       0.98000       0.85000       0.70000       0.70000       0.50000       0.20000       0.20000       0.00000       0.00000       0.00000       0.50000  
hyd0094                0.00000       0.65000       0.65000       0.80000       0.98000       0.85000       0.70000       0.70000       0.50000       0.20000       0.20000       0.00000       0.00000       0.00000       0.50000  
hyd0095                0.00000       0.65000       0.65000       0.80000       0.98000       0.85000       0.70000       0.70000       0.50000       0.20000       0.20000       0.00000       0.00000       0.00000       0.50000  
hyd0096                0.00000       0.65000       0.65000       0.80000       0.98000       0.85000       0.70000       0.70000       0.50000       0.20000       0.20000       0.00000       0.00000       0.00000       0.50000  
hyd0097                0.00000       0.65000       0.65000       0.80000       0.98000       0.85000       0.70000       0.70000       0.50000       0.20000       0.20000       0.00000       0.00000       0.00000       0.50000  
hyd0098                0.00000       0.65000       0.65000       0.80000       0.98000       0.85000       0.70000       0.70000       0.50000       0.20000       0.20000       0.00000       0.00000       0.00000       0.50000  
hyd0099                0.00000       0.65000       0.65000       0.80000       0.98000       0.85000       0.70000       0.70000       0.50000       0.20000       0.20000       0.00000       0.00000       0.00000       0.50000  
hyd0100                0.00000       0.65000       0.65000       0.80000       0.98000       0.85000       0.70000       0.70000       0.50000       0.20000       0.20000       0.00000       0.00000       0.00000       0.50000  
hyd0101                0.00000       0.65000       0.65000       0.80000       0.98000       0.85000       0.70000       0.70000       0.50000       0.20000       0.20000       0.00000       0.00000       0.00000       0.50000  
hyd0102                0.00000       0.65000       0.65000       0.80000       0.98000       0.85000       0.70000       0.70000       0.50000       0.20000       0.20000       0.00000       0.00000       0.00000       0.50000  
hyd0103                0.00000       0.65000       0.65000       0.80000       0.98000       0.85000       0.70000       0.70000       0.50000       0.20000       0.20000       0.00000       0.00000       0.00000       0.50000  
hyd0104                0.00000       0.65000       0.65000       0.80000       0.98000       0.85000       0.70000       0.70000       0.50000       0.20000       0.20000       0.00000       0.00000       0.00000       0.50000  
hyd0105                0.00000       0.65000       0.65000       0.80000       0.98000       0.85000       0.70000       0.70000       0.50000       0.20000       0.20000       0.00000       0.00000       0.00000       0.50000  
hyd0106                0.00000       0.65000       0.65000       0.80000       0.98000       0.85000       0.70000       0.70000       0.50000       0.20000       0.20000       0.00000       0.00000       0.00000       0.50000  
hyd0107                0.00000       0.65000       0.65000       0.80000       0.98000       0.85000       0.70000       0.70000       0.50000       0.20000       0.20000       0.00000       0.00000       0.00000       0.50000  
hyd0108                0.00000       0.65000       0.65000       0.80000       0.98000       0.85000       0.70000       0.70000       0.50000       0.20000       0.20000       0.00000       0.00000       0.00000       0.50000  
hyd0109                0.00000       0.65000       0.65000       0.80000       0.98000       0.85000       0.70000       0.70000       0.50000       0.20000       0.20000       0.00000       0.00000       0.00000       0.50000  
hyd0110                0.00000       0.65000       0.65000       0.80000       0.98000       0.85000       0.70000       0.70000       0.50000       0.20000       0.20000       0.00000       0.00000       0.00000       0.50000  
hyd0111                0.00000       0.65000       0.65000       0.80000       0.98000       0.85000       0.70000       0.70000       0.50000       0.20000       0.20000       0.00000       0.00000       0.00000       0.50000  
hyd0112                0.00000       0.65000       0.65000       0.80000       0.98000       0.85000       0.70000       0.70000       0.50000       0.20000       0.20000       0.00000       0.00000       0.00000       0.50000  
hyd0113                0.00000       0.65000       0.65000       0.80000       0.98000       0.85000       0.70000       0.70000       0.50000       0.20000       0.20000       0.00000       0.00000       0.00000       0.50000  
hyd0114                0.00000       0.65000       0.65000       0.80000       0.98000       0.85000       0.70000       0.70000       0.50000       0.20000       0.20000       0.00000       0.00000       0.00000       0.50000  
hyd0115                0.00000       0.65000       0.65000       0.80000       0.98000       0.85000       0.70000       0.70000       0.50000       0.20000       0.20000       0.00000       0.00000       0.00000       0.50000  
hyd0116                0.00000       0.65000       0.65000       0.80000       0.98000       0.85000       0.70000       0.70000       0.50000       0.20000       0.20000       0.00000       0.00000       0.00000       0.50000  
hyd0117                0.00000       0.65000       0.65000       0.80000       0.98000       0.85000       0.70000       0.70000       0.50000       0.20000       0.20000       0.00000       0.00000       0.00000       0.50000  
hyd0118                0.00000       0.65000       0.65000       0.80000       0.98000       0.85000       0.70000       0.70000       0.50000       0.20000       0.20000       0.00000       0.00000       0.00000       0.50000  
hyd0119                0.00000       0.65000       0.65000       0.80000       0.98000       0.85000       0.70000       0.70000       0.50000       0.20000       0.20000       0.00000       0.00000       0.00000       0.50000  
hyd0120                0.00000       0.65000       0.65000       0.80000       0.98000       0.85000       0.70000       0.70000       0.50000       0.20000       0.20000       0.00000       0.00000       0.00000       0.50000  
hyd0121                0.00000       0.65000       0.65000       0.80000       0.98000       0.85000       0.70000       0.70000       0.50000       0.20000       0.20000       0.00000       0.00000       0.00000       0.50000  
hyd0122                0.00000       0.65000       0.65000       0.80000       0.98000       0.85000       0.70000       0.70000       0.50000       0.20000       0.20000       0.00000       0.00000       0.00000       0.50000  
hyd0123                0.00000       0.65000       0.65000       0.80000       0.98000       0.85000       0.70000       0.70000       0.50000       0.20000       0.20000       0.00000       0.00000       0.00000       0.50000  
hyd0124                0.00000       0.65000       0.65000       0.80000       0.98000       0.85000       0.70000       0.70000       0.50000       0.20000       0.20000       0.00000       0.00000       0.00000       0.50000  
hyd0125                0.00000       0.65000       0.65000       0.80000       0.98000       0.85000       0.70000       0.70000       0.50000       0.20000       0.20000       0.00000       0.00000       0.00000       0.50000  
hyd0126                0.00000       0.65000       0.65000       0.80000       0.98000       0.85000       0.70000       0.70000       0.50000       0.20000       0.20000       0.00000       0.00000       0.00000       0.50000  
hyd0127                0.00000       0.65000       0.65000       0.80000       0.98000       0.85000       0.70000       0.70000       0.50000       0.20000       0.20000       0.00000       0.00000       0.00000       0.50000  
hyd0128                0.00000       0.65000       0.65000       0.80000       0.98000       0.85000       0.70000       0.70000       0.50000       0.20000       0.20000       0.00000       0.00000       0.00000       0.50000  
hyd0129                0.00000       0.65000       0.65000       0.80000       0.98000       0.85000       0.70000       0.70000       0.50000       0.20000       0.20000       0.00000       0.00000       0.00000       0.50000  