initial.cha: written by SWAT+ editor v1.2.3 on 2020-11-02 07:04
name                       org_min              pest              path              hmet              salt               bed  description       
initcha1               stream_init              null              null              null              null          upstream  null           
initcha2               stream_init              null              null              null              null           wyckles  null     
initcha3               stream_init              null              null              null              null        downstream  null            
