ls_unit.ele: written by SWAT+ editor v1.2.3 on 2020-11-02 07:04
      id  name                   obj_typ  obj_typ_no      bsn_frac      sub_frac      reg_frac  
       1  hru0001                    hru           1     1.1355E-3       0.04875       0.00000  
       2  hru0002                    hru           2     1.6377E-3       0.07031       0.00000  
       3  hru0003                    hru           3     2.3596E-3       0.10131       0.00000  
       4  hru0004                    hru           4     1.6399E-3       0.07041       0.00000  
       5  hru0005                    hru           5     1.2690E-3       0.05448       0.00000  
       6  hru0006                    hru           6     2.1693E-3       0.09314       0.00000  
       7  hru0007                    hru           7     7.0932E-4       0.03045       0.00000  
       8  hru0008                    hru           8     1.2101E-3       0.05195       0.00000  
       9  hru0009                    hru           9     1.9875E-3       0.08533       0.00000  
      10  hru0010                    hru          10     4.1157E-4       0.01767       0.00000  
      11  hru0011                    hru          11     6.9472E-4       0.02983       0.00000  
      12  hru0012                    hru          12     2.3596E-4       0.01013       0.00000  
      13  hru0013                    hru          13     1.1125E-3       0.04776       0.00000  
      14  hru0014                    hru          14     3.3327E-4       0.01431       0.00000  
      15  hru0015                    hru          15     6.0806E-5       0.00261       0.00000  
      16  hru0016                    hru          16     5.3535E-4       0.02298       0.00000  
      17  hru0017                    hru          17     2.6550E-3       0.11399       0.00000  
      18  hru0018                    hru          18     7.4190E-4       0.03185       0.00000  
      19  hru0019                    hru          19     1.4530E-4       0.00624       0.00000  
      20  hru0020                    hru          20     1.4860E-3       0.06380       0.00000  
      21  hru0021                    hru          21     2.9926E-4       0.01285       0.00000  
      22  hru0022                    hru          22     4.1794E-4       0.01794       0.00000  
      23  hru0023                    hru          23     7.8096E-5       0.00335       0.00000  
      24  hru0024                    hru          24     1.7382E-4       0.00784       0.00000  
      25  hru0025                    hru          25     7.6091E-4       0.03433       0.00000  
      26  hru0026                    hru          26     1.4408E-3       0.06500       0.00000  
      27  hru0027                    hru          27     1.1091E-3       0.05004       0.00000  
      28  hru0028                    hru          28     9.4569E-5       0.00427       0.00000  
      29  hru0029                    hru          29     4.3118E-4       0.01945       0.00000  
      30  hru0030                    hru          30     8.1401E-4       0.03672       0.00000  
      31  hru0031                    hru          31     6.3450E-4       0.02862       0.00000  
      32  hru0032                    hru          32     1.0726E-3       0.04839       0.00000  
      33  hru0033                    hru          33     9.6735E-4       0.04364       0.00000  
      34  hru0034                    hru          34     7.4449E-4       0.03359       0.00000  
      35  hru0035                    hru          35     6.7173E-4       0.03030       0.00000  
      36  hru0036                    hru          36     1.2852E-4       0.00580       0.00000  
      37  hru0037                    hru          37     1.2166E-4       0.00549       0.00000  
      38  hru0038                    hru          38     1.2759E-4       0.00576       0.00000  
      39  hru0039                    hru          39     1.9416E-4       0.00876       0.00000  
      40  hru0040                    hru          40     1.0878E-4       0.00491       0.00000  
      41  hru0041                    hru          41     1.1964E-4       0.00540       0.00000  
      42  hru0042                    hru          42     3.7051E-4       0.01672       0.00000  
      43  hru0043                    hru          43     8.7827E-5       0.00396       0.00000  
      44  hru0044                    hru          44     1.7279E-4       0.00780       0.00000  
      45  hru0045                    hru          45     7.0257E-4       0.03170       0.00000  
      46  hru0046                    hru          46     2.0681E-3       0.09330       0.00000  
      47  hru0047                    hru          47     8.7850E-4       0.03963       0.00000  
      48  hru0048                    hru          48     3.6746E-4       0.01658       0.00000  
      49  hru0049                    hru          49     4.3844E-4       0.01978       0.00000  
      50  hru0050                    hru          50     1.6623E-4       0.00750       0.00000  
      51  hru0051                    hru          51     6.9401E-5       0.00313       0.00000  
      52  hru0052                    hru          52     5.2697E-5       0.00238       0.00000  
      53  hru0053                    hru          53     7.8620E-4       0.03547       0.00000  
      54  hru0054                    hru          54     6.5988E-4       0.02977       0.00000  
      55  hru0055                    hru          55     1.2336E-4       0.00557       0.00000  
      56  hru0056                    hru          56     2.9575E-4       0.01334       0.00000  
      57  hru0057                    hru          57     9.4644E-5       0.00427       0.00000  
      58  hru0058                    hru          58     9.7820E-5       0.00441       0.00000  
      59  hru0059                    hru          59     3.9537E-4       0.01784       0.00000  
      60  hru0060                    hru          60     1.1757E-3       0.05304       0.00000  
      61  hru0061                    hru          61     4.9057E-4       0.02213       0.00000  
      62  hru0062                    hru          62     1.4828E-3       0.06690       0.00000  
      63  hru0063                    hru          63     4.0682E-4       0.01835       0.00000  
      64  hru0064                    hru          64     8.4337E-4       0.03805       0.00000  
      65  hru0065                    hru          65     2.3082E-4       0.01041       0.00000  
      66  hru0066                    hru          66     6.6124E-4       0.01587       0.00000  
      67  hru0067                    hru          67     3.2354E-4       0.00777       0.00000  
      68  hru0068                    hru          68     9.7353E-4       0.02337       0.00000  
      69  hru0069                    hru          69     2.2869E-4       0.00549       0.00000  
      70  hru0070                    hru          70     2.8858E-3       0.06928       0.00000  
      71  hru0071                    hru          71     1.1765E-3       0.02825       0.00000  
      72  hru0072                    hru          72     5.7712E-4       0.01386       0.00000  
      73  hru0073                    hru          73     1.7397E-3       0.04177       0.00000  
      74  hru0074                    hru          74     4.0583E-4       0.00974       0.00000  
      75  hru0075                    hru          75     5.1520E-3       0.12369       0.00000  
      76  hru0076                    hru          76     2.5706E-3       0.06172       0.00000  
      77  hru0077                    hru          77     6.2134E-4       0.01492       0.00000  
      78  hru0078                    hru          78     7.1454E-3       0.17155       0.00000  
      79  hru0079                    hru          79     1.4471E-3       0.03474       0.00000  
      80  hru0080                    hru          80     3.5353E-4       0.00849       0.00000  
      81  hru0081                    hru          81     4.0180E-3       0.09646       0.00000  
      82  hru0082                    hru          82     9.8022E-4       0.02353       0.00000  
      83  hru0083                    hru          83     7.1570E-4       0.01718       0.00000  
      84  hru0084                    hru          84     1.1161E-4       0.00268       0.00000  
      85  hru0085                    hru          85     2.0581E-4       0.00494       0.00000  
      86  hru0086                    hru          86     1.4477E-4       0.00348       0.00000  
      87  hru0087                    hru          87     2.2101E-3       0.05306       0.00000  
      88  hru0088                    hru          88     1.4354E-3       0.03446       0.00000  
      89  hru0089                    hru          89     1.9468E-4       0.00467       0.00000  
      90  hru0090                    hru          90     1.6606E-4       0.00399       0.00000  
      91  hru0091                    hru          91     2.2965E-4       0.00551       0.00000  
      92  hru0092                    hru          92     1.5324E-4       0.00368       0.00000  
      93  hru0093                    hru          93     3.0922E-4       0.00742       0.00000  
      94  hru0094                    hru          94     1.0082E-4       0.00242       0.00000  
      95  hru0095                    hru          95     9.7152E-4       0.02332       0.00000  
      96  hru0096                    hru          96     1.1907E-4       0.00286       0.00000  
      97  hru0097                    hru          97     1.6602E-4       0.00399       0.00000  
      98  hru0098                    hru          98     1.2588E-4       0.00302       0.00000  
      99  hru0099                    hru          99     1.1046E-4       0.00265       0.00000  
     100  hru0100                    hru         100     2.8256E-4       0.00678       0.00000  
     101  hru0101                    hru         101     1.4660E-4       0.00352       0.00000  
     102  hru0102                    hru         102     1.0392E-3       0.02495       0.00000  
     103  hru0103                    hru         103     2.5654E-4       0.00616       0.00000  
     104  hru0104                    hru         104     5.5138E-4       0.01324       0.00000  
     105  hru0105                    hru         105     4.0258E-4       0.00967       0.00000  
     106  hru0106                    hru         106     6.2781E-5       0.00151       0.00000  
     107  hru0107                    hru         107     1.1577E-4       0.00278       0.00000  
     108  hru0108                    hru         108     8.1431E-5       0.00195       0.00000  
     109  hru0109                    hru         109     3.2195E-3       0.16079       0.00000  
     110  hru0110                    hru         110     1.3399E-3       0.06692       0.00000  
     111  hru0111                    hru         111     5.6323E-4       0.02813       0.00000  
     112  hru0112                    hru         112     1.3196E-3       0.06590       0.00000  
     113  hru0113                    hru         113     1.8133E-3       0.09056       0.00000  
     114  hru0114                    hru         114     7.4147E-4       0.03703       0.00000  
     115  hru0115                    hru         115     7.5036E-4       0.03748       0.00000  
     116  hru0116                    hru         116     3.1481E-4       0.01572       0.00000  
     117  hru0117                    hru         117     2.9184E-3       0.14576       0.00000  
     118  hru0118                    hru         118     1.1520E-3       0.05754       0.00000  
     119  hru0119                    hru         119     3.8076E-4       0.01902       0.00000  
     120  hru0120                    hru         120     8.9592E-4       0.04475       0.00000  
     121  hru0121                    hru         121     1.0268E-3       0.05128       0.00000  
     122  hru0122                    hru         122     1.6515E-3       0.08248       0.00000  
     123  hru0123                    hru         123     6.4317E-4       0.03212       0.00000  
     124  hru0124                    hru         124     2.1337E-4       0.01066       0.00000  
     125  hru0125                    hru         125     5.0870E-4       0.02541       0.00000  
     126  hru0126                    hru         126     5.7968E-4       0.02895       0.00000  
     127  hru0127                    hru         127     1.0788E-3       0.03379       0.00000  
     128  hru0128                    hru         128     2.2728E-3       0.07119       0.00000  
     129  hru0129                    hru         129     6.7794E-3       0.21236       0.00000  
     130  hru0130                    hru         130     7.4015E-4       0.02318       0.00000  
     131  hru0131                    hru         131     1.7245E-3       0.05402       0.00000  
     132  hru0132                    hru         132     6.7725E-3       0.21214       0.00000  
     133  hru0133                    hru         133     9.7247E-4       0.03046       0.00000  
     134  hru0134                    hru         134     4.1789E-4       0.01309       0.00000  
     135  hru0135                    hru         135     3.7901E-3       0.11872       0.00000  
     136  hru0136                    hru         136     5.9804E-4       0.01873       0.00000  
     137  hru0137                    hru         137     1.2827E-3       0.04018       0.00000  
     138  hru0138                    hru         138     3.8243E-3       0.11979       0.00000  
     139  hru0139                    hru         139     2.7024E-4       0.00846       0.00000  
     140  hru0140                    hru         140     1.3063E-4       0.00409       0.00000  
     141  hru0141                    hru         141     1.0156E-3       0.03181       0.00000  
     142  hru0142                    hru         142     2.0850E-4       0.00653       0.00000  
     143  hru0143                    hru         143     5.6328E-5       0.00176       0.00000  
     144  hru0144                    hru         144     6.4576E-4       0.04535       0.00000  
     145  hru0145                    hru         145     2.2790E-4       0.01600       0.00000  
     146  hru0146                    hru         146     2.8038E-4       0.01969       0.00000  
     147  hru0147                    hru         147     2.1528E-4       0.01512       0.00000  
     148  hru0148                    hru         148     6.2507E-4       0.04389       0.00000  
     149  hru0149                    hru         149     1.1560E-3       0.08117       0.00000  
     150  hru0150                    hru         150     4.0581E-4       0.02850       0.00000  
     151  hru0151                    hru         151     3.7382E-4       0.02625       0.00000  
     152  hru0152                    hru         152     4.9623E-4       0.03485       0.00000  
     153  hru0153                    hru         153     1.0954E-3       0.07692       0.00000  
     154  hru0154                    hru         154     3.8550E-4       0.02707       0.00000  
     155  hru0155                    hru         155     1.0121E-3       0.07107       0.00000  
     156  hru0156                    hru         156     4.2091E-4       0.02956       0.00000  
     157  hru0157                    hru         157     5.7726E-4       0.04054       0.00000  
     158  hru0158                    hru         158     1.3216E-3       0.09280       0.00000  
     159  hru0159                    hru         159     2.1931E-4       0.01540       0.00000  
     160  hru0160                    hru         160     5.6806E-4       0.03989       0.00000  
     161  hru0161                    hru         161     2.3528E-4       0.01652       0.00000  
     162  hru0162                    hru         162     3.3143E-4       0.02327       0.00000  
     163  hru0163                    hru         163     7.4622E-4       0.05240       0.00000  
     164  hru0164                    hru         164     3.8201E-4       0.02683       0.00000  
     165  hru0165                    hru         165     8.2296E-5       0.00578       0.00000  
     166  hru0166                    hru         166     1.3888E-3       0.09753       0.00000  
     167  hru0167                    hru         167     2.1674E-4       0.01522       0.00000  
     168  hru0168                    hru         168     4.6422E-5       0.00326       0.00000  
     169  hru0169                    hru         169     7.9020E-4       0.05549       0.00000  
     170  hru0170                    hru         170     9.8264E-4       0.08649       0.00000  
     171  hru0171                    hru         171     2.0860E-4       0.01836       0.00000  
     172  hru0172                    hru         172     7.6937E-4       0.06772       0.00000  
     173  hru0173                    hru         173     1.1856E-3       0.10435       0.00000  
     174  hru0174                    hru         174     1.2240E-4       0.01077       0.00000  
     175  hru0175                    hru         175     5.4069E-4       0.04759       0.00000  
     176  hru0176                    hru         176     4.3115E-4       0.03795       0.00000  
     177  hru0177                    hru         177     6.6255E-4       0.05831       0.00000  
     178  hru0178                    hru         178     6.7465E-4       0.05938       0.00000  
     179  hru0179                    hru         179     1.3563E-4       0.01194       0.00000  
     180  hru0180                    hru         180     3.1338E-4       0.02758       0.00000  
     181  hru0181                    hru         181     6.9735E-4       0.06138       0.00000  
     182  hru0182                    hru         182     1.2075E-3       0.10628       0.00000  
     183  hru0183                    hru         183     2.3752E-4       0.02091       0.00000  
     184  hru0184                    hru         184     5.5370E-4       0.04873       0.00000  
     185  hru0185                    hru         185     1.2535E-3       0.11032       0.00000  
     186  hru0186                    hru         186     3.2455E-4       0.02857       0.00000  
     187  hru0187                    hru         187     8.3007E-5       0.00731       0.00000  
     188  hru0188                    hru         188     1.9744E-4       0.01738       0.00000  
     189  hru0189                    hru         189     4.1692E-4       0.03670       0.00000  
     190  hru0190                    hru         190     2.2276E-4       0.01961       0.00000  
     191  hru0191                    hru         191     1.4073E-4       0.01239       0.00000  
     192  hru0192                    hru         192     1.0725E-3       0.44897       0.00000  
     193  hru0193                    hru         193     4.0136E-4       0.16801       0.00000  
     194  hru0194                    hru         194     7.9844E-4       0.33424       0.00000  
     195  hru0195                    hru         195     3.0598E-5       0.01281       0.00000  
     196  hru0196                    hru         196     7.3071E-6       0.00306       0.00000  
     197  hru0197                    hru         197     3.0655E-5       0.01283       0.00000  
     198  hru0198                    hru         198     1.0687E-5       0.00447       0.00000  
     199  hru0199                    hru         199     2.1322E-5       0.00893       0.00000  
     200  hru0200                    hru         200     6.7168E-6       0.00281       0.00000  
     201  hru0201                    hru         201     1.1012E-5       0.00461       0.00000  
     202  hru0202                    hru         202     7.1889E-4       0.03928       0.00000  
     203  hru0203                    hru         203     2.9840E-4       0.01631       0.00000  
     204  hru0204                    hru         204     7.4102E-4       0.04049       0.00000  
     205  hru0205                    hru         205     1.5371E-3       0.08399       0.00000  
     206  hru0206                    hru         206     1.2680E-3       0.06928       0.00000  
     207  hru0207                    hru         207     5.3396E-4       0.02918       0.00000  
     208  hru0208                    hru         208     1.3021E-3       0.07115       0.00000  
     209  hru0209                    hru         209     2.6957E-3       0.14730       0.00000  
     210  hru0210                    hru         210     9.5643E-4       0.05226       0.00000  
     211  hru0211                    hru         211     4.5061E-4       0.02462       0.00000  
     212  hru0212                    hru         212     1.1073E-3       0.06051       0.00000  
     213  hru0213                    hru         213     2.4909E-3       0.13611       0.00000  
     214  hru0214                    hru         214     5.3625E-4       0.02930       0.00000  
     215  hru0215                    hru         215     2.5676E-4       0.01403       0.00000  
     216  hru0216                    hru         216     6.2490E-4       0.03415       0.00000  
     217  hru0217                    hru         217     1.3928E-3       0.07611       0.00000  
     218  hru0218                    hru         218     9.8366E-5       0.00538       0.00000  
     219  hru0219                    hru         219     5.0642E-5       0.00277       0.00000  
     220  hru0220                    hru         220     1.4554E-4       0.00795       0.00000  
     221  hru0221                    hru         221     2.2109E-4       0.01208       0.00000  
     222  hru0222                    hru         222     7.2950E-4       0.03986       0.00000  
     223  hru0223                    hru         223     1.6394E-4       0.00896       0.00000  
     224  hru0224                    hru         224     6.9550E-4       0.05950       0.00000  
     225  hru0225                    hru         225     8.4172E-4       0.07201       0.00000  
     226  hru0226                    hru         226     1.2379E-3       0.10591       0.00000  
     227  hru0227                    hru         227     1.5177E-3       0.12984       0.00000  
     228  hru0228                    hru         228     3.2220E-4       0.02757       0.00000  
     229  hru0229                    hru         229     8.8618E-5       0.00758       0.00000  
     230  hru0230                    hru         230     1.7969E-4       0.01537       0.00000  
     231  hru0231                    hru         231     3.4453E-5       0.00295       0.00000  
     232  hru0232                    hru         232     7.0011E-5       0.00599       0.00000  
     233  hru0233                    hru         233     4.3912E-5       0.00376       0.00000  
     234  hru0234                    hru         234     4.8418E-5       0.00414       0.00000  
     235  hru0235                    hru         235     9.3109E-4       0.07966       0.00000  
     236  hru0236                    hru         236     9.9494E-4       0.08512       0.00000  
     237  hru0237                    hru         237     1.6668E-3       0.14260       0.00000  
     238  hru0238                    hru         238     1.7465E-3       0.14942       0.00000  
     239  hru0239                    hru         239     3.2954E-4       0.02819       0.00000  
     240  hru0240                    hru         240     6.6739E-5       0.00571       0.00000  
     241  hru0241                    hru         241     2.6993E-4       0.02309       0.00000  
     242  hru0242                    hru         242     1.1842E-4       0.01013       0.00000  
     243  hru0243                    hru         243     2.6875E-4       0.02299       0.00000  
     244  hru0244                    hru         244     6.3624E-5       0.00544       0.00000  
     245  hru0245                    hru         245     9.4537E-5       0.00809       0.00000  
     246  hru0246                    hru         246     5.7516E-5       0.00492       0.00000  
     247  hru0247                    hru         247     8.3989E-4       0.06090       0.00000  
     248  hru0248                    hru         248     3.2790E-4       0.02377       0.00000  
     249  hru0249                    hru         249     1.0953E-3       0.07941       0.00000  
     250  hru0250                    hru         250     1.1007E-3       0.07980       0.00000  
     251  hru0251                    hru         251     4.7250E-4       0.03426       0.00000  
     252  hru0252                    hru         252     1.8717E-4       0.01357       0.00000  
     253  hru0253                    hru         253     6.1642E-4       0.04469       0.00000  
     254  hru0254                    hru         254     6.1853E-4       0.04485       0.00000  
     255  hru0255                    hru         255     1.1352E-3       0.08231       0.00000  
     256  hru0256                    hru         256     3.7119E-4       0.02691       0.00000  
     257  hru0257                    hru         257     1.8770E-3       0.13609       0.00000  
     258  hru0258                    hru         258     1.5385E-3       0.11155       0.00000  
     259  hru0259                    hru         259     2.0944E-4       0.01519       0.00000  
     260  hru0260                    hru         260     6.3177E-4       0.04581       0.00000  
     261  hru0261                    hru         261     1.0566E-3       0.07661       0.00000  
     262  hru0262                    hru         262     8.6133E-4       0.06245       0.00000  
     263  hru0263                    hru         263     4.6935E-4       0.03403       0.00000  
     264  hru0264                    hru         264     1.7800E-4       0.01291       0.00000  
     265  hru0265                    hru         265     2.0847E-4       0.01512       0.00000  
     266  hru0266                    hru         266     3.5554E-4       0.02101       0.00000  
     267  hru0267                    hru         267     1.1666E-3       0.06893       0.00000  
     268  hru0268                    hru         268     2.3553E-3       0.13915       0.00000  
     269  hru0269                    hru         269     6.5134E-4       0.03848       0.00000  
     270  hru0270                    hru         270     1.9347E-4       0.01143       0.00000  
     271  hru0271                    hru         271     1.3236E-3       0.07820       0.00000  
     272  hru0272                    hru         272     8.8585E-4       0.05234       0.00000  
     273  hru0273                    hru         273     3.0746E-4       0.01817       0.00000  
     274  hru0274                    hru         274     1.3274E-3       0.07843       0.00000  
     275  hru0275                    hru         275     1.5781E-3       0.09324       0.00000  
     276  hru0276                    hru         276     5.4713E-4       0.03233       0.00000  
     277  hru0277                    hru         277     2.3434E-3       0.13845       0.00000  
     278  hru0278                    hru         278     1.7229E-4       0.01018       0.00000  
     279  hru0279                    hru         279     1.6609E-4       0.00981       0.00000  
     280  hru0280                    hru         280     5.9677E-4       0.03526       0.00000  
     281  hru0281                    hru         281     1.5126E-4       0.00894       0.00000  
     282  hru0282                    hru         282     2.2241E-4       0.01314       0.00000  
     283  hru0283                    hru         283     1.1337E-4       0.00670       0.00000  
     284  hru0284                    hru         284     3.9801E-4       0.02351       0.00000  
     285  hru0285                    hru         285     1.1529E-4       0.00681       0.00000  
     286  hru0286                    hru         286     1.2830E-4       0.00758       0.00000  
     287  hru0287                    hru         287     8.3702E-5       0.00495       0.00000  
     288  hru0288                    hru         288     2.2594E-4       0.01335       0.00000  
     289  hru0289                    hru         289     5.6762E-4       0.03354       0.00000  
     290  hru0290                    hru         290     1.6352E-4       0.00966       0.00000  
     291  hru0291                    hru         291     1.6524E-4       0.00976       0.00000  
     292  hru0292                    hru         292     1.8297E-4       0.01081       0.00000  
     293  hru0293                    hru         293     3.2336E-4       0.01910       0.00000  
     294  hru0294                    hru         294     1.2175E-4       0.00719       0.00000  
     295  hru0295                    hru         295     5.0038E-4       0.01935       0.00000  
     296  hru0296                    hru         296     6.9410E-4       0.02685       0.00000  
     297  hru0297                    hru         297     3.0991E-4       0.01199       0.00000  
     298  hru0298                    hru         298     8.9714E-4       0.03470       0.00000  
     299  hru0299                    hru         299     1.2471E-3       0.04823       0.00000  
     300  hru0300                    hru         300     5.4592E-4       0.02112       0.00000  
     301  hru0301                    hru         301     5.1766E-4       0.02002       0.00000  
     302  hru0302                    hru         302     5.2641E-4       0.02036       0.00000  
     303  hru0303                    hru         303     9.4146E-4       0.03641       0.00000  
     304  hru0304                    hru         304     7.8532E-4       0.03038       0.00000  