ls_unit.def: written by SWAT+ editor v1.2.3 on 2020-11-02 07:04
48
      id              name          area  elem_tot  elements  
       1            rtu010    8572.71073         2         1       -23  
       2            rtu020    8158.56211         2        24       -65  
       3            rtu030   15330.96230         2        66      -108  
       4            rtu040   11750.13790         2       127      -143  
       5            rtu050    5241.43374         2       144      -169  
       6            rtu060    4181.78702         2       170      -191  
       7            rtu070    6735.70068         2       202      -223  
       8            rtu080    4302.08097         2       224      -246  
       9            rtu090    5076.26622         2       247      -265  
      10            rtu100    6229.65803         2       266      -294  
      11            rtu110    9515.91776         2       295      -353  
      12            rtu120   12348.28589         2       405      -442  
      13            rtu130    7052.57957         2       459      -472  
      14            rtu140     546.63932         2       473      -499  
      15            rtu150   11612.66031         2       520      -539  
      16            rtu160   10527.70723         2       540      -561  
      17            rtu170    5632.02563         2       562      -573  
      18            rtu180    7481.33386         2       574      -593  
      19            rtu190    6351.67627         2       594      -629  
      20            rtu200   15290.50931         2       630      -676  
      21            rtu210    9229.05320         2       677      -728  
      22            rtu220    7918.66730         2       755      -787  
      23            rtu230    7910.92494         2       788      -836  
      24            rtu240    1075.30048         2       837      -863  
      25            rtu250    3628.05617         2       864      -908  
      26            rtu260    1576.11112         2       909      -939  
      27            rtu270    9110.22150         2       940      -960  
      28            rtu280   12552.07224         2       961     -1015  
      29            rtu290    8448.68083         2      1016     -1038  
      30            rtu300    8107.18868         2      1039     -1081  
      31            rtu310   14641.68944         2      1082     -1106  
      32            rtu320    9711.82651         2      1107     -1139  
      33            rtu330    4983.07897         2      1175     -1218  
      34            rtu340    6940.84785         2      1251     -1288  
      35            rtu350    8729.47660         2      1289     -1310  
      36            rtu360   11673.80466         2      1311     -1339  
      37            rtu370    6983.02512         2      1340     -1353  
      38            rtu380    9548.40017         2      1382     -1387  
      39            rtu390    7369.47536         2       109      -126  
      40            rtu400     879.23114         2       192      -201  
      41            rtu410    6459.47763         2       354      -373  
      42            rtu420    6767.33786         2       374      -404  
      43            rtu430   14016.43474         2       443      -458  
      44            rtu440    5128.78072         2       500      -519  
      45            rtu450    7252.68913         2       729      -754  
      46            rtu460    5046.43785         2      1140     -1174  
      47            rtu470    4332.81375         2      1219     -1250  
      48            rtu480    6100.69196         2      1354     -1381  
