management.sch: written by SWAT+ editor v1.2.3 on 2020-11-02 07:04
name                       numb_ops  numb_auto            op_typ       mon       day        hu_sch          op_data1          op_data2      op_data3  
corn_sch                          9          0  
                                                            fert         4         5       0.00000           anh_nh3            inject      83.00000  
                                                            till         4         7       0.00000           fldcult              null       0.00000  
                                                            plnt         5         1       0.00000              corn              null       0.00000  
                                                            fert         6         4       0.00000              urea            inject      74.00000  
                                                            hvkl        10         8       0.00000              corn       grain_usang       0.00000  
                                                            fert        10        28       0.00000          18_46_00         broadcast     207.00000  
                                                            fert        10        30       0.00000           anh_nh3            inject     104.00000  
                                                            till        11         1       0.00000          dkchmtil              null       0.00000  
                                                            skip         0         0         0              null              null       0.00000  
crtw_sch                         13          0  
                                                            fert         4         5       0.00000           anh_nh3            inject      83.00000  
                                                            till         4         7       0.00000           fldcult              null       0.00000  
                                                            plnt         5         1       0.00000              corn              null       0.00000  
                                                            fert         6         4       0.00000              urea            inject      74.00000  
                                                            hvkl        10         8       0.00000              corn       grain_usang       0.00000  
                                                            skip         0         0         0              null              null       0.00000  
                                                            till         4        28       0.00000           fldcult              null       0.00000  
                                                            plnt         5        19       0.00000              soyb              null       0.00000  
                                                            hvkl        10        11       0.00000              soyb       grain_usang       0.00000  
                                                            fert        10        28       0.00000          18_46_00         broadcast     207.00000  
                                                            fert        10        30       0.00000           anh_nh3            inject     104.00000  
                                                            till        11         1       0.00000          dkchmtil              null       0.00000  
                                                            skip         0         0         0              null              null       0.00000  
sytw_sch                         13          0  
                                                            till         4        28       0.00000           fldcult              null       0.00000  
                                                            plnt         5        19       0.00000              soyb              null       0.00000  
                                                            hvkl        10        11       0.00000              soyb       grain_usang       0.00000  
                                                            fert        10        28       0.00000          18_46_00         broadcast     207.00000  
                                                            fert        10        30       0.00000           anh_nh3            inject     104.00000  
                                                            till        11         1       0.00000          dkchmtil              null       0.00000  
                                                            skip         0         0         0              null              null       0.00000  
                                                            fert         4         5       0.00000           anh_nh3            inject      83.00000  
                                                            till         4         7       0.00000           fldcult              null       0.00000  
                                                            plnt         5         1       0.00000              corn              null       0.00000  
                                                            fert         6         4       0.00000              urea            inject      74.00000  
                                                            hvkl        10         8       0.00000              corn       grain_usang       0.00000  
                                                            skip         0         0         0              null              null       0.00000  
srdg_sch                          7          0  
                                                            fert         4         5       0.00000             SR_FR       manure_srdg    4148.00000  
                                                            till         4         7       0.00000           fldcult              null       0.00000  
                                                            plnt         5         1       0.00000              csil              null       0.00000  
                                                            hvkl         8        25       0.00000              csil            silage       0.00000  
                                                            fert         8        27       0.00000             SR_FR       manure_srdg    4148.00000  
                                                            till         8        29       0.00000          dkchmtil              null       0.00000  
                                                            skip         0         0         0              null              null       0.00000
blug_sch                          6          0  
                                                            harv         5        25       0.00000              blug         grass_bag       0.00000 
                                                            harv         6        25       0.00000              blug         grass_bag       0.00000 
                                                            harv         7        25       0.00000              blug         grass_bag       0.00000 
                                                            harv         8        25       0.00000              blug         grass_bag       0.00000 
                                                            harv         9        25       0.00000              blug         grass_bag       0.00000  															
                                                            skip         0         0         0              null              null       0.00000
hayy_sch                          2          0  
                                                            harv         9        25       0.00000               hay      hay_cut_high       0.00000 															
                                                            skip         0         0         0              null              null       0.00000																
