object.cnt: written by SWAT+ editor v1.2.3 on 2020-10-30 18:16
name                   ls_area      tot_area       obj       hru      lhru       rtu       mfl       aqu       cha       res       rec      exco       dlr       can       pmp       out      lcha     aqu2d       hrd       wro  
FromArc_USang_1027  368060.43079  368060.43079      1580      1387         0        48         0        49         47        1        48         0         0         0         0         0         0         0         0         0  
