om_water.ini: written by SWAT+ editor v1.2.3 on 2020-11-06 08:15
name                       flo           sed          orgn          sedp         minpa         minps           no3          solp         chl_a           nh3           no2       cbn_bod        dis_ox           san           sil           cla           sag           lag           grv           tmp             c  
decatur_init           0.50000      20.40000       0.50000       0.02000       0.02000       0.08000       4.30000       0.08000       0.01000       0.16000       0.00000       4.00000       6.00000       0.00000      10.20000      10.20000       0.00000       0.00000       0.00000      23.00000       0.00000  
stream_init            0.05000      20.40000       0.50000       0.02000       0.02000       0.08000       4.30000       0.08000       0.01000       0.16000       0.00000       4.00000       6.00000       0.00000      10.20000      10.20000       0.00000       0.00000       0.00000      23.00000       0.00000  
no_init                0.00000       0.00000       0.00000       0.00000       0.00000       0.00000       0.00000       0.00000       0.00000       0.00000       0.00000       0.00000       0.00000       0.00000       0.00000       0.00000       0.00000       0.00000       0.00000       0.00000       0.00000  
