plant.ini: written by SWAT+ editor v1.2.3 on 2020-11-06 08:15
pcom_name          plt_cnt  rot_yr_ini          plt_name     lc_status      lai_init       bm_init      phu_init      plnt_pop      yrs_init      rsd_init  
sytw_comm                3         1  
                                        sytw             n       0.00000       0.00000       0.00000       0.00000       0.00000     000.00000  
                                        soyb             n       0.00000       0.00000       0.00000       0.00000       0.00000     000.00000  
                                        corn             n       0.00000       0.00000       0.00000       0.00000       0.00000     100.00000  										
stbs_comm                3         1  
                                        stbs             n       0.00000       0.00000       0.00000       0.00000       0.00000     000.00000
                                        soyb             n       0.00000       0.00000       0.00000       0.00000       0.00000     000.00000  
                                        corn             n       0.00000       0.00000       0.00000       0.00000       0.00000     100.00000										
crtw_comm                3         1  
                                        crtw             n       0.00000       0.00000       0.00000       0.00000       0.00000     000.00000
                                        soyb             n       0.00000       0.00000       0.00000       0.00000       0.00000     100.00000  
                                        corn             n       0.00000       0.00000       0.00000       0.00000       0.00000     000.00000										
ctbs_comm                3         1                                                                                                
                                        ctbs             n       0.00000       0.00000       0.00000       0.00000       0.00000     000.00000
                                        soyb             n       0.00000       0.00000       0.00000       0.00000       0.00000     100.00000  
                                        corn             n       0.00000       0.00000       0.00000       0.00000       0.00000     000.00000										
cttl_comm                3         1                                                                                                
                                        cttl             n       0.00000       0.00000       0.00000       0.00000       0.00000     000.00000
                                        soyb             n       0.00000       0.00000       0.00000       0.00000       0.00000     100.00000  
                                        corn             n       0.00000       0.00000       0.00000       0.00000       0.00000     000.00000										
ctbt_comm                3         1                                                                                                
                                        ctbt             n       0.00000       0.00000       0.00000       0.00000       0.00000     000.00000
                                        soyb             n       0.00000       0.00000       0.00000       0.00000       0.00000     100.00000  
                                        corn             n       0.00000       0.00000       0.00000       0.00000       0.00000     000.00000										
sttl_comm                3         1                                                                                                
                                        sttl             n       0.00000       0.00000       0.00000       0.00000       0.00000     000.00000
                                        soyb             n       0.00000       0.00000       0.00000       0.00000       0.00000     000.00000  
                                        corn             n       0.00000       0.00000       0.00000       0.00000       0.00000     100.00000										
stbt_comm                3         1                                                                                                
                                        stbt             n       0.00000       0.00000       0.00000       0.00000       0.00000     000.00000
                                        soyb             n       0.00000       0.00000       0.00000       0.00000       0.00000     000.00000  
                                        corn             n       0.00000       0.00000       0.00000       0.00000       0.00000     100.00000										
crtl_comm                2         1                                                                                                
                                        crtl             n       0.00000       0.00000       0.00000       0.00000       0.00000     000.00000
                                        corn             n       0.00000       0.00000       0.00000       0.00000       0.00000     100.00000										
cbtl_comm                2         1                                                                                                
                                        cbtl             n       0.00000       0.00000       0.00000       0.00000       0.00000     000.00000
                                        corn             n       0.00000       0.00000       0.00000       0.00000       0.00000     100.00000										
frsd_comm                1         1  
                                        frsd             y       5.00000   30000.00000       0.00000       0.00000       1.00000    1000.00000  
crsr_comm                2         1  
                                        crsr             n       0.00000       0.00000       0.00000       0.00000       0.00000     000.00000
                                        csil             n       0.00000       0.00000       0.00000       0.00000       0.00000     100.00000										
csrt_comm                2         1  
                                        csrt             n       0.00000       0.00000       0.00000       0.00000       0.00000     000.00000
                                        csil             n       0.00000       0.00000       0.00000       0.00000       0.00000     100.00000										
hay_comm                 1         1  
                                         hay             y       1.00000    5000.00000       0.00000       0.00000       1.00000     100.00000  
wetf_comm                1         1  
                                        wetf             y       5.00000   30000.00000       0.00000       0.00000       1.00000    1000.00000  
corn_comm                1         1  
                                        corn             n       0.00000       0.00000       0.00000       0.00000       0.00000     100.00000  
watr_comm                1         1  
                                        watr             n       0.00000       0.00000       0.00000       0.00000       0.00000     100.00000
blug_comm                1         1  
                                        blug             y       0.50000    1000.00000       0.00000       0.00000       1.00000     100.00000 										
