plants.plt: written by SWAT+ editor v1.2.3 on 2020-11-06 08:15
name                      plnt_typ          gro_trig       nfix_co      days_mat          bm_e      harv_idx       lai_pot      frac_hu1      lai_max1      frac_hu2      lai_max2   hu_lai_decl     dlai_rate    can_ht_max     rt_dp_max       tmp_opt      tmp_base    frac_n_yld    frac_p_yld     frac_n_em     frac_n_50    frac_n_mat     frac_p_em     frac_p_50    frac_p_mat   harv_idx_ws    usle_c_min     stcon_max           vpd    frac_stcon        ru_vpd        co2_hi       bm_e_hi   plnt_decomp       lai_min   bm_tree_acc       yrs_mat   bm_tree_max        ext_co   leaf_tov_mn   leaf_tov_mx     bm_dieoff     rt_st_beg     rt_st_end     plnt_pop1     frac_lai1     plnt_pop2     frac_lai2   frac_sw_gro      wnd_live      wnd_dead      wnd_flat  description
agrl                   warm_annual          temp_gro       0.00000     110.00000      33.50000       0.45000       3.00000       0.15000       0.05000       0.50000       0.95000       0.64000       1.00000       1.00000       2.00000      30.00000      11.00000       0.01990       0.00320       0.04400       0.01640       0.01280       0.00600       0.00220       0.00180       0.25000       0.20000       0.00500       4.00000       0.75000       8.50000     660.00000      36.00000       0.05000       0.00000       0.00000       0.00000       0.00000       0.65000      12.00000       3.00000       0.10000       0.00000       0.00000       0.00000       0.00000       0.00000       0.00000       0.50000       0.00000       0.00000       0.00000  Agricultural Land-Generic
agrr                   warm_annual          temp_gro       0.00000     110.00000      39.00000       0.50000       3.00000       0.15000       0.05000       0.50000       0.95000       0.70000       1.00000       2.50000       2.00000      25.00000       8.00000       0.01400       0.00160       0.04700       0.01770       0.01380       0.00480       0.00180       0.00140       0.30000       0.20000       0.00700       4.00000       0.75000       7.20000     660.00000      45.00000       0.05000       0.00000       0.00000       0.00000       0.00000       0.65000      12.00000       3.00000       0.10000       0.00000       0.00000       0.00000       0.00000       0.00000       0.00000       0.50000       0.00000       0.00000       0.00000  Agricultural Land-Row Crops
agrc                   cold_annual          temp_gro       0.00000     110.00000      30.00000       0.40000       4.00000       0.05000       0.05000       0.45000       0.95000       0.50000       1.00000       0.90000       1.30000      18.00000       0.00000       0.02500       0.00220       0.06630       0.02550       0.01480       0.00530       0.00200       0.00120       0.20000       0.03000       0.00600       4.00000       0.75000       6.00000     660.00000      39.00000       0.05000       0.00000       0.00000       0.00000       0.00000       0.65000      12.00000       3.00000       0.10000       0.00000       0.00000       0.00000       0.00000       0.00000       0.00000       0.50000       0.00000       0.00000       0.00000  Agricultural Land-Close-grown
orcd                     perennial          temp_gro       0.00000       0.00000      15.00000       0.10000       4.00000       0.10000       0.15000       0.50000       0.75000       0.99000       1.00000       3.50000       2.00000      20.00000       7.00000       0.00190       0.00040       0.00600       0.00200       0.00150       0.00070       0.00040       0.00030       0.05000       0.00100       0.00700       4.00000       0.75000       3.00000     660.00000      20.00000       0.05000       0.75000       0.30000       0.00000       0.00000       0.65000      12.00000       3.00000       0.10000       0.00000       0.00000       0.00000       0.00000       0.00000       0.00000       0.50000       0.00000       0.00000       0.00000  Orchard
hay                      perennial          temp_gro       0.00000       0.00000      35.00000       0.90000       4.00000       0.05000       0.05000       0.49000       0.95000       0.99000       1.00000       0.50000       2.00000      25.00000      12.00000       0.02340       0.00330       0.06000       0.02310       0.01340       0.00840       0.00320       0.00190       0.90000       0.00300       0.00500       4.00000       0.75000      10.00000     660.00000      36.00000       0.05000       0.00000       0.30000       5.00000       5.00000       0.65000      12.00000       3.00000       0.10000       0.00000       0.00000       0.00000       0.00000       0.00000       0.00000       0.50000       0.00000       0.00000       0.00000  Hay
frst                     perennial          temp_gro       0.00000       0.00000      15.00000       0.76000       5.00000       0.05000       0.05000       0.40000       0.95000       0.99000       1.00000       6.00000       3.50000      30.00000      10.00000       0.00150       0.00030       0.00600       0.00200       0.00150       0.00070       0.00040       0.00030       0.01000       0.00100       0.00200       4.00000       0.75000       8.00000     660.00000      16.00000       0.05000       0.75000       0.30000      50.00000      30.00000       0.65000      12.00000       3.00000       0.10000       0.00000       0.00000       0.00000       0.00000       0.00000       0.00000       0.50000       0.00000       0.00000       0.00000  Forest-Mixed
frsd                     perennial          temp_gro       0.00000       0.00000      15.00000       0.76000       5.00000       0.05000       0.05000       0.40000       0.95000       0.99000       1.00000       6.00000       3.50000      30.00000      10.00000       0.00150       0.00030       0.00600       0.00200       0.00150       0.00070       0.00040       0.00030       0.01000       0.00100       0.00200       4.00000       0.75000       8.00000     660.00000      16.00000       0.05000       0.75000       0.30000      10.00000      30.00000       0.65000      12.00000       3.00000       0.10000       0.00000       0.00000       0.00000       0.00000       0.00000       0.00000       0.50000       0.00000       0.00000       0.00000  Forest-Deciduous
frse                     perennial          temp_gro       0.00000       0.00000      15.00000       0.76000       5.00000       0.15000       0.70000       0.25000       0.99000       0.99000       1.00000      10.00000       3.50000      30.00000       0.00000       0.00150       0.00030       0.00600       0.00200       0.00150       0.00070       0.00040       0.00030       0.60000       0.00100       0.00200       4.00000       0.75000       8.00000     660.00000      16.00000       0.05000       0.75000       0.30000      30.00000      30.00000       0.65000      12.00000       3.00000       0.10000       0.00000       0.00000       0.00000       0.00000       0.00000       0.00000       0.50000       0.00000       0.00000       0.00000  Forest-Evergreen
wetl                     perennial          temp_gro       0.00000       0.00000      47.00000       0.90000       6.00000       0.10000       0.20000       0.20000       0.95000       0.70000       1.00000       2.50000       2.20000      25.00000      12.00000       0.01600       0.00220       0.03500       0.01500       0.00380       0.00140       0.00100       0.00070       0.90000       0.00300       0.00500       4.00000       0.75000       8.50000     660.00000      54.00000       0.05000       0.00000       0.00000       0.00000       0.00000       0.65000      12.00000       3.00000       0.10000       0.00000       0.00000       0.00000       0.00000       0.00000       0.00000       0.50000       0.00000       0.00000       0.00000  Wetlands-Mixed
wetf                     perennial          temp_gro       0.00000       0.00000      15.00000       0.76000       5.00000       0.05000       0.05000       0.40000       0.95000       0.99000       1.00000       6.00000       3.50000      30.00000      10.00000       0.00150       0.00030       0.00600       0.00200       0.00150       0.00070       0.00040       0.00030       0.01000       0.00100       0.00200       4.00000       0.75000       8.00000     660.00000      16.00000       0.05000       0.00000       0.00000      30.00000      30.00000       0.65000      12.00000       3.00000       0.10000       0.00000       0.00000       0.00000       0.00000       0.00000       0.00000       0.50000       0.00000       0.00000       0.00000  Wetlands-Forested
wetn                     perennial          temp_gro       0.00000       0.00000      47.00000       0.90000       6.00000       0.10000       0.20000       0.20000       0.95000       0.70000       1.00000       2.50000       2.20000      25.00000      12.00000       0.01600       0.00220       0.03500       0.01500       0.00380       0.00140       0.00100       0.00070       0.90000       0.00300       0.00500       4.00000       0.75000       8.50000     660.00000      54.00000       0.05000       0.00000       0.00000       0.00000       0.00000       0.65000      12.00000       3.00000       0.10000       0.00000       0.00000       0.00000       0.00000       0.00000       0.00000       0.50000       0.00000       0.00000       0.00000  Wetlands-Non-Forested
past                     perennial          temp_gro       0.00000       0.00000      35.00000       0.90000       4.00000       0.05000       0.05000       0.49000       0.95000       0.99000       1.00000       0.50000       2.00000      25.00000      12.00000       0.02340       0.00330       0.06000       0.02310       0.01340       0.00840       0.00320       0.00190       0.90000       0.00300       0.00500       4.00000       0.75000      10.00000     660.00000      36.00000       0.05000       0.00000       0.00000       0.00000       0.00000       0.65000      12.00000       3.00000       0.10000       0.00000       0.00000       0.00000       0.00000       0.00000       0.00000       0.50000       0.00000       0.00000       0.00000  Pasture
spas                     perennial          temp_gro       0.00000       0.00000      35.00000       0.90000       4.00000       0.05000       0.05000       0.49000       0.95000       0.99000       1.00000       0.50000       2.00000      25.00000      12.00000       0.02340       0.00330       0.06000       0.02310       0.01340       0.00840       0.00320       0.00190       0.90000       0.00300       0.00500       4.00000       0.75000      10.00000     660.00000      36.00000       0.05000       0.00000       0.00000       0.00000       0.00000       0.65000      12.00000       3.00000       0.10000       0.00000       0.00000       0.00000       0.00000       0.00000       0.00000       0.50000       0.00000       0.00000       0.00000  Summer Pasture
wpas                     perennial          temp_gro       0.00000       0.00000      30.00000       0.90000       4.00000       0.15000       0.01000       0.50000       0.95000       0.80000       1.00000       1.50000       2.00000      15.00000       0.00000       0.02340       0.00330       0.05600       0.02100       0.01200       0.00990       0.00220       0.00190       0.90000       0.00300       0.00500       4.00000       0.75000       8.00000     660.00000      39.00000       0.05000       0.00000       0.00000       0.00000       0.00000       0.65000      12.00000       3.00000       0.10000       0.00000       0.00000       0.00000       0.00000       0.00000       0.00000       0.50000       0.00000       0.00000       0.00000  Winter Pasture
rnge                     perennial          temp_gro       0.00000       0.00000      34.00000       0.90000       2.50000       0.05000       0.10000       0.25000       0.70000       0.35000       1.00000       1.00000       2.00000      25.00000      12.00000       0.01600       0.00220       0.02000       0.01200       0.00500       0.00140       0.00100       0.00070       0.90000       0.00300       0.00500       4.00000       0.75000      10.00000     660.00000      39.00000       0.05000       0.00000       0.00000       0.00000       0.00000       0.33000      12.00000       3.00000       0.10000       0.00000       0.00000       0.00000       0.00000       0.00000       0.00000       0.50000       0.00000       0.00000       0.00000  Range-Grasses
rngb                     perennial          temp_gro       0.00000       0.00000      34.00000       0.90000       2.00000       0.05000       0.10000       0.25000       0.70000       0.35000       1.00000       1.00000       2.00000      25.00000      12.00000       0.01600       0.00220       0.02000       0.01200       0.00500       0.00140       0.00100       0.00070       0.90000       0.00300       0.00500       4.00000       0.75000      10.00000     660.00000      39.00000       0.05000       0.00000       0.00000       0.00000       0.00000       0.33000      12.00000       3.00000       0.10000       0.00000       0.00000       0.00000       0.00000       0.00000       0.00000       0.50000       0.00000       0.00000       0.00000  Range-Brush
swrn                     perennial          temp_gro       0.00000       0.00000      34.00000       0.90000       1.50000       0.05000       0.10000       0.25000       0.70000       0.35000       1.00000       1.00000       2.00000      25.00000      12.00000       0.01600       0.00220       0.02000       0.01200       0.00500       0.00140       0.00100       0.00070       0.90000       0.00300       0.00500       4.00000       0.75000      10.00000     660.00000      39.00000       0.05000       0.00000       0.00000       0.00000       0.00000       0.33000      12.00000       3.00000       0.10000       0.00000       0.00000       0.00000       0.00000       0.00000       0.00000       0.50000       0.00000       0.00000       0.00000  Southwestern US (Arid) Range
watr                     perennial          temp_gro       0.00000       0.00000       0.00000       0.00000       0.10000       0.00000       0.00000       0.00000       0.00000       0.00000       1.00000       0.00000       0.00000       0.00000       0.00000       0.00000       0.00000       0.00000       0.00000       0.00000       0.00000       0.00000       0.00000       0.00000       0.00000       0.00000       0.00000       0.00000       0.00000       0.00000       0.00000       0.00000       0.00000       0.00000       0.00000       0.00000       0.00000      12.00000       3.00000       0.10000       0.00000       0.00000       0.00000       0.00000       0.00000       0.00000       0.50000       0.00000       0.00000       0.00000  Water
corn                   warm_annual          temp_gro       0.00000     120.00000      39.00000       0.50000       4.00000       0.15000       0.05000       0.50000       0.95000       0.70000       1.00000       2.50000       2.00000      25.00000       8.00000       0.01400       0.00310       0.04700       0.01770       0.01380       0.00480       0.00180       0.00140       0.30000       0.09000       0.00700       4.00000       0.75000       7.20000     660.00000      45.00000       0.05000       0.00000       0.00000       0.00000       0.00000       0.65000      12.00000       3.00000       0.10000       0.00000       0.00000       0.00000       0.00000       0.00000       0.00000       0.50000       0.00000       0.00000       0.00000  Corn
csil                   warm_annual          temp_gro       0.00000     120.00000      39.00000       0.90000       4.00000       0.15000       0.05000       0.50000       0.95000       0.70000       1.00000       2.50000       2.00000      25.00000       8.00000       0.01400       0.00200       0.04700       0.01770       0.01380       0.00480       0.00180       0.00140       0.90000       0.09000       0.00700       4.00000       0.75000       7.20000     660.00000      45.00000       0.05000       0.00000       0.00000       0.00000       0.00000       0.65000      12.00000       3.00000       0.10000       0.00000       0.00000       0.00000       0.00000       0.00000       0.00000       0.50000       0.00000       0.00000       0.00000  Corn Silage
scrn                   warm_annual          temp_gro       0.00000     120.00000      39.00000       0.50000       2.50000       0.15000       0.05000       0.50000       0.95000       0.50000       1.00000       2.50000       2.00000      24.00000      12.00000       0.02140       0.00370       0.04700       0.01770       0.01380       0.00480       0.00180       0.00140       0.30000       0.20000       0.00700       4.00000       0.75000       7.20000     660.00000      45.00000       0.05000       0.00000       0.00000       0.00000       0.00000       0.65000      12.00000       3.00000       0.10000       0.00000       0.00000       0.00000       0.00000       0.00000       0.00000       0.50000       0.00000       0.00000       0.00000  Sweet Corn
egam                     perennial          temp_gro       0.00000       0.00000      21.00000       0.90000       2.50000       0.05000       0.18000       0.25000       0.90000       0.40000       1.00000       1.70000       2.00000      25.00000      12.00000       0.01600       0.00220       0.02000       0.01000       0.00700       0.00140       0.00100       0.00070       0.90000       0.00300       0.00500       4.00000       0.75000      10.00000     660.00000      58.00000       0.05000       0.00000       0.00000       0.00000       0.00000       0.31000      12.00000       3.00000       0.10000       0.00000       0.00000       0.00000       0.00000       0.00000       0.00000       0.50000       0.00000       0.00000       0.00000  Eastern Gamagrass
grsg                   warm_annual          temp_gro       0.00000     120.00000      33.50000       0.45000       3.00000       0.15000       0.05000       0.50000       0.95000       0.64000       1.00000       1.00000       2.00000      30.00000      11.00000       0.01990       0.00320       0.04400       0.01640       0.01280       0.00600       0.00220       0.00180       0.25000       0.20000       0.00500       4.00000       0.75000       8.50000     660.00000      36.00000       0.05000       0.00000       0.00000       0.00000       0.00000       0.65000      12.00000       3.00000       0.10000       0.00000       0.00000       0.00000       0.00000       0.00000       0.00000       0.50000       0.00000       0.00000       0.00000  Grain Sorghum
sghy                   warm_annual          temp_gro       0.00000     120.00000      33.50000       0.90000       4.00000       0.15000       0.05000       0.50000       0.95000       0.64000       1.00000       1.50000       2.00000      30.00000      11.00000       0.01990       0.00320       0.04400       0.01640       0.01280       0.00600       0.00220       0.00180       0.90000       0.20000       0.00500       4.00000       0.75000       8.50000     660.00000      36.00000       0.05000       0.00000       0.00000       0.00000       0.00000       0.65000      12.00000       3.00000       0.10000       0.00000       0.00000       0.00000       0.00000       0.00000       0.00000       0.50000       0.00000       0.00000       0.00000  Sorghum Hay
jhgr                     perennial          temp_gro       0.00000       0.00000      35.00000       0.90000       2.50000       0.15000       0.05000       0.57000       0.95000       0.50000       1.00000       1.00000       2.00000      30.00000      11.00000       0.02000       0.00280       0.04400       0.01640       0.01280       0.00600       0.00220       0.00180       0.90000       0.20000       0.00500       4.00000       0.75000       8.50000     660.00000      36.00000       0.05000       0.00000       0.00000       0.00000       0.00000       0.65000      12.00000       3.00000       0.10000       0.00000       0.00000       0.00000       0.00000       0.00000       0.00000       0.50000       0.00000       0.00000       0.00000  Johnsongrass
sugc                     perennial          temp_gro       0.00000       0.00000      25.00000       0.50000       6.00000       0.15000       0.01000       0.50000       0.95000       0.75000       1.00000       3.00000       2.00000      25.00000      11.00000       0.00000       0.00000       0.01000       0.00400       0.00250       0.00750       0.00300       0.00190       0.01000       0.00100       0.00500       4.00000       0.75000      10.00000     660.00000      33.00000       0.05000       0.00000       0.00000       0.00000       0.00000       0.65000      12.00000       3.00000       0.10000       0.00000       0.00000       0.00000       0.00000       0.00000       0.00000       0.50000       0.00000       0.00000       0.00000  Sugarcane
swht                   cold_annual          temp_gro       0.00000     120.00000      35.00000       0.42000       4.00000       0.15000       0.05000       0.50000       0.95000       0.60000       1.00000       0.90000       2.00000      18.00000       0.00000       0.02340       0.00330       0.06000       0.02310       0.01340       0.00840       0.00320       0.00190       0.20000       0.03000       0.00600       4.00000       0.75000       8.00000     660.00000      46.00000       0.05000       0.00000       0.00000       0.00000       0.00000       0.65000      12.00000       3.00000       0.10000       0.00000       0.00000       0.00000       0.00000       0.00000       0.00000       0.50000       0.00000       0.00000       0.00000  Spring Wheat
wwht                   cold_annual          temp_gro       0.00000     110.00000      30.00000       0.40000       4.00000       0.05000       0.05000       0.45000       0.95000       0.50000       1.00000       0.90000       1.30000      18.00000       0.00000       0.02500       0.00220       0.06630       0.02550       0.01480       0.00530       0.00200       0.00120       0.20000       0.03000       0.00600       4.00000       0.75000       6.00000     660.00000      39.00000       0.05000       0.00000       0.00000       0.00000       0.00000       0.65000      12.00000       3.00000       0.10000       0.00000       0.00000       0.00000       0.00000       0.00000       0.00000       0.50000       0.00000       0.00000       0.00000  Winter Wheat
dwht                   cold_annual          temp_gro       0.00000     120.00000      30.00000       0.40000       4.00000       0.15000       0.01000       0.50000       0.95000       0.80000       1.00000       1.00000       2.00000      15.00000       0.00000       0.02630       0.00570       0.06000       0.02310       0.01300       0.00840       0.00320       0.00190       0.20000       0.03000       0.00600       4.00000       0.75000       7.00000     660.00000      45.00000       0.05000       0.00000       0.00000       0.00000       0.00000       0.65000      12.00000       3.00000       0.10000       0.00000       0.00000       0.00000       0.00000       0.00000       0.00000       0.50000       0.00000       0.00000       0.00000  Durum Wheat
rye                    cold_annual          temp_gro       0.00000     120.00000      35.00000       0.40000       4.00000       0.15000       0.01000       0.50000       0.95000       0.80000       1.00000       1.00000       1.80000      12.50000       0.00000       0.02840       0.00420       0.06000       0.02310       0.01340       0.00840       0.00320       0.00190       0.20000       0.03000       0.01000       4.00000       0.75000       7.00000     660.00000      45.00000       0.05000       0.00000       0.00000       0.00000       0.00000       0.65000      12.00000       3.00000       0.10000       0.00000       0.00000       0.00000       0.00000       0.00000       0.00000       0.50000       0.00000       0.00000       0.00000  Rye
barl                   cold_annual          temp_gro       0.00000     120.00000      35.00000       0.54000       4.00000       0.15000       0.01000       0.45000       0.95000       0.60000       1.00000       1.20000       1.30000      25.00000       0.00000       0.02100       0.00170       0.05900       0.02260       0.01310       0.00570       0.00220       0.00130       0.20000       0.01000       0.00800       4.00000       0.75000       7.00000     660.00000      45.00000       0.05000       0.00000       0.00000       0.00000       0.00000       0.65000      12.00000       3.00000       0.10000       0.00000       0.00000       0.00000       0.00000       0.00000       0.00000       0.50000       0.00000       0.00000       0.00000  Spring Barley
oats                   cold_annual          temp_gro       0.00000     120.00000      35.00000       0.42000       4.00000       0.15000       0.02000       0.50000       0.95000       0.80000       1.00000       1.50000       2.00000      15.00000       0.00000       0.03160       0.00570       0.06000       0.02310       0.01340       0.00840       0.00320       0.00190       0.17500       0.03000       0.00500       4.00000       0.75000      10.00000     660.00000      45.00000       0.05000       0.00000       0.00000       0.00000       0.00000       0.45000      12.00000       3.00000       0.10000       0.00000       0.00000       0.00000       0.00000       0.00000       0.00000       0.50000       0.00000       0.00000       0.00000  Oats
rice                   warm_annual          temp_gro       0.00000     120.00000      22.00000       0.50000       5.00000       0.30000       0.01000       0.70000       0.95000       0.80000       1.00000       0.80000       0.90000      25.00000      10.00000       0.01360       0.00130       0.05000       0.02000       0.01000       0.00600       0.00300       0.00180       0.25000       0.03000       0.00800       4.00000       0.75000       5.00000     660.00000      31.00000       0.05000       0.00000       0.00000       0.00000       0.00000       0.35000      12.00000       3.00000       0.10000       0.00000       0.00000       0.00000       0.00000       0.00000       0.00000       0.50000       0.00000       0.00000       0.00000  Rice
pmil                   warm_annual          temp_gro       0.00000     120.00000      35.00000       0.25000       2.50000       0.15000       0.01000       0.50000       0.95000       0.85000       1.00000       3.00000       2.00000      30.00000      10.00000       0.02000       0.00280       0.04400       0.03000       0.01000       0.00600       0.00220       0.00120       0.10000       0.20000       0.01400       4.00000       0.75000       8.00000     660.00000      40.00000       0.05000       0.00000       0.00000       0.00000       0.00000       0.65000      12.00000       3.00000       0.10000       0.00000       0.00000       0.00000       0.00000       0.00000       0.00000       0.50000       0.00000       0.00000       0.00000  Pearl Millet
timo                     perennial          temp_gro       0.00000       0.00000      35.00000       0.90000       4.00000       0.15000       0.01000       0.50000       0.95000       0.85000       1.00000       0.80000       2.00000      25.00000       8.00000       0.02340       0.00330       0.03140       0.01370       0.01030       0.00380       0.00250       0.00190       0.90000       0.00300       0.00500       4.00000       0.75000       8.00000     660.00000      45.00000       0.05000       0.00000       0.00000       0.00000       0.00000       0.65000      12.00000       3.00000       0.10000       0.00000       0.00000       0.00000       0.00000       0.00000       0.00000       0.50000       0.00000       0.00000       0.00000  Timothy
bros                     perennial          temp_gro       0.00000       0.00000      35.00000       0.90000       5.00000       0.15000       0.01000       0.50000       0.95000       0.85000       1.00000       1.20000       2.00000      25.00000       8.00000       0.02340       0.00330       0.04000       0.02400       0.01600       0.00280       0.00170       0.00110       0.90000       0.00300       0.00300       4.00000       0.75000       8.00000     660.00000      45.00000       0.05000       0.00000       0.00000       0.00000       0.00000       0.65000      12.00000       3.00000       0.10000       0.00000       0.00000       0.00000       0.00000       0.00000       0.00000       0.50000       0.00000       0.00000       0.00000  Smooth Bromegrass
brom                     perennial          temp_gro       0.00000       0.00000      35.00000       0.90000       3.00000       0.45000       0.02000       0.80000       0.95000       0.85000       1.00000       0.80000       1.30000      25.00000       6.00000       0.02340       0.00330       0.04000       0.02400       0.01600       0.00280       0.00170       0.00110       0.90000       0.00300       0.00500       4.00000       0.75000       8.00000     660.00000      45.00000       0.05000       0.00000       0.00000       0.00000       0.00000       0.65000      12.00000       3.00000       0.10000       0.00000       0.00000       0.00000       0.00000       0.00000       0.00000       0.50000       0.00000       0.00000       0.00000  Meadow Bromegrass