recall.con: written by SWAT+ editor v1.2.3 on 2020-10-30 18:16
      id  name                gis_id          area           lat           lon          elev       rec               wst       cst      ovfl      rule   out_tot       obj_typ    obj_id       hyd_typ          frac  
       1  pt002                    2       0.00001      40.43378     -88.59028     246.21419         1     sta4043n8850w         0         0         0         1           cha         1           tot       1.00000  
       2  pt004                    4       0.00001      40.42982     -88.53437     235.43279         2     sta4043n8850w         0         0         0         1           cha         2           tot       1.00000  
       3  pt006                    6       0.00001      40.42086     -88.41876     223.02325         3     sta4043n8850w         0         0         0         1           cha         3           tot       1.00000  
       4  pt008                    8       0.00001      40.28491     -88.44857     225.51009         4     sta4024n8846w         0         0         0         1           cha         4           tot       1.00000  
       5  pt010                   10       0.00001      40.37077     -88.28993     216.68347         5     sta4037n8833w         0         0         0         1           cha         5           tot       1.00000  
       6  pt012                   12       0.00001      40.34552     -88.30330     212.19391         6     sta4033n8828w         0         0         0         1           cha         6           tot       1.00000  
       7  pt014                   14       0.00001      40.33125     -88.19826     218.25835         7     sta4033n8828w         0         0         0         1           cha         7           tot       1.00000  
       8  pt016                   16       0.00001      40.30600     -88.34116     210.60738         8     sta4028n8829w         0         0         0         1           cha         8           tot       1.00000  
       9  pt018                   18       0.00001      40.33042     -88.26091     218.07784         9     sta4033n8828w         0         0         0         1           cha         9           tot       1.00000  
      10  pt020                   20       0.00001      40.22934     -88.33046     217.42633        10     sta4028n8829w         0         0         0         1           cha        10           tot       1.00000  
      11  pt022                   22       0.00001      40.23402     -88.36254     207.07906        11     sta4020n8842w         0         0         0         1           cha        11           tot       1.00000  
      12  pt024                   24       0.00001      40.09447     -88.53975     195.82393        12     sta4009n8861w         0         0         0         1           cha        12           tot       1.00000  
      13  pt026                   26       0.00001      40.02520     -88.49758     208.99081        13     sta3998n8860w         0         0         0         1           cha        13           tot       1.00000  
      14  pt028                   28       0.00001      40.05186     -88.57954     192.86560        14     sta4009n8861w         0         0         0         1           cha        14           tot       1.00000  
      15  pt030                   30       0.00001      40.05354     -88.74545     207.07294        15     sta4005n8874w         0         0         0         1           cha        15           tot       1.00000  
      16  pt032                   32       0.00001      39.98319     -88.86446     206.56023        16     sta4001n8886w         0         0         0         1           cha        16           tot       1.00000  
      17  pt034                   34       0.00001      39.95708     -88.64710     197.74637        17     sta3994n8867w         0         0         0         1           cha        17           tot       1.00000  
      18  pt036                   36       0.00001      39.98749     -88.94049     206.74007        18     sta3996n8899w         0         0         0         1           cha        18           tot       1.00000  
      19  pt038                   38       0.00001      39.99286     -88.80830     193.47737        19     sta4001n8886w         0         0         0         1           cha        19           tot       1.00000  
      20  pt040                   40       0.00001      39.98814     -88.66410     190.37601        20     sta3994n8867w         0         0         0         1           cha        20           tot       1.00000  
      21  pt042                   42       0.00001      39.87799     -88.78636     206.93942        21     sta3986n8876w         0         0         0         1           cha        21           tot       1.00000  
      22  pt044                   44       0.00001      39.85677     -89.15701     180.95056        22     sta3982n8912w         0         0         0         1           cha        22           tot       1.00000  
      23  pt046                   46       0.00001      39.87251     -88.99046     186.12512        23     sta3986n8902w         0         0         0         1           cha        23           tot       1.00000  
      24  pt048                   48       0.00001      39.83092     -88.97636     179.87808        24     sta3978n8896w         0         0         0         1           cha        24           tot       1.00000  
      25  pt050                   50       0.00001      39.80809     -88.98935     191.14828        25     sta3978n8896w         0         0         0         1           cha        25           tot       1.00000  
      26  pt052                   52       0.00001      39.83198     -89.00175     179.41786        26     sta3986n8902w         0         0         0         1           cha        26           tot       1.00000  
      27  pt054                   54       0.00001      39.79880     -88.89598     186.61499        27     sta3978n8896w         0         0         0         1           res         1           tot       1.00000  
      28  pt056                   56       0.00001      39.77075     -89.47084     161.43401        28     sta3976n8944w         0         0         0         1           cha        27           tot       1.00000  
      29  pt058                   58       0.00001      39.85850     -89.20617     173.47778        29     sta3984n8924w         0         0         0         1           cha        28           tot       1.00000  
      30  pt060                   60       0.00001      39.78943     -89.12581     174.50494        30     sta3982n8912w         0         0         0         1           cha        29           tot       1.00000  
      31  pt062                   62       0.00001      39.79889     -89.42084     166.38945        31     sta3983n8940w         0         0         0         1           cha        30           tot       1.00000  
      32  pt064                   64       0.00001      39.72925     -89.12857     178.36330        32     sta3977n8905w         0         0         0         1           cha        31           tot       1.00000  
      33  pt066                   66       0.00001      39.82430     -89.02902     178.48251        33     sta3986n8902w         0         0         0         1           cha        32           tot       1.00000  
      34  pt068                   68       0.00001      39.76509     -88.82390     201.72939        34     sta3979n8882w         0         0         0         1           cha        33           tot       1.00000  
      35  pt070                   70       0.00001      39.70813     -89.32716     171.96497        35     sta3977n8932w         0         0         0         1           cha        34           tot       1.00000  
      36  pt072                   72       0.00001      39.68877     -89.15863     184.96616        36     sta3977n8905w         0         0         0         1           cha        35           tot       1.00000  
      37  pt074                   74       0.00001      39.70705     -89.23898     180.06041        37     sta3977n8932w         0         0         0         1           cha        36           tot       1.00000  
      38  pt076                   76       0.00001      39.64420     -89.18595     185.14909        38     sta3977n8932w         0         0         0         1           cha        37           tot       1.00000  
      39  pt078                   78       0.00001      40.38654     -88.33084     216.66388        39     sta4037n8833w         0         0         0         1           cha        38           tot       1.00000  
      40  pt080                   80       0.00001      40.29581     -88.48071     226.03677        40     sta4024n8846w         0         0         0         1           cha        39           tot       1.00000  
      41  pt082                   82       0.00001      40.10816     -88.54438     199.41786        41     sta4017n8854w         0         0         0         1           cha        40           tot       1.00000  
      42  pt084                   84       0.00001      40.08709     -88.45753     206.75328        42     sta4009n8840w         0         0         0         1           cha        41           tot       1.00000  
      43  pt086                   86       0.00001      40.06838     -88.60105     196.73727        43     sta4009n8861w         0         0         0         1           cha        42           tot       1.00000  
      44  pt088                   88       0.00001      40.05395     -88.79957     205.63684        44     sta4005n8874w         0         0         0         1           cha        43           tot       1.00000  
      45  pt090                   90       0.00001      39.89114     -88.92702     197.58733        45     sta3990n8888w         0         0         0         1           cha        44           tot       1.00000  
      46  pt092                   92       0.00001      39.80205     -88.85387     189.83693        46     sta3979n8882w         0         0         0         1           cha        45           tot       1.00000  
      47  pt094                   94       0.00001      39.78820     -88.94100     188.51093        47     sta3978n8896w         0         0         0         1           cha        46           tot       1.00000  
      48  pt096                   96       0.00001      39.71053     -88.90461     209.58282        48     sta3978n8896w         0         0         0         1           cha        47           tot       1.00000  
