rout_unit.con: written by SWAT+ editor v1.2.3 on 2020-10-30 18:16
      id  name                gis_id          area           lat           lon          elev       rtu               wst       cst      ovfl      rule   out_tot       obj_typ    obj_id       hyd_typ          frac  
       1  rtu010                  10    8572.71073      40.43891     -88.63540     261.47543         1     sta4046n8872w         0         0         0         2           cha         1           tot       1.00000           aqu         1           rhg       1.00000  
       2  rtu020                  20    8158.56211      40.41826     -88.47431     238.19215         2     sta4043n8850w         0         0         0         2           cha         2           tot       1.00000           aqu         2           rhg       1.00000  
       3  rtu030                  30   15330.96230      40.46904     -88.40875     236.63814         3     sta4043n8850w         0         0         0         2           cha         3           tot       1.00000           aqu         3           rhg       1.00000  
       4  rtu040                  40   11750.13790      40.33534     -88.47158     227.86688         4     sta4024n8846w         0         0         0         2           cha         4           tot       1.00000           aqu         5           rhg       1.00000  
       5  rtu050                  50    5241.43374      40.38461     -88.26536     225.14546         5     sta4033n8828w         0         0         0         2           cha         5           tot       1.00000           aqu         6           rhg       1.00000  
       6  rtu060                  60    4181.78702      40.34638     -88.34806     219.13110         6     sta4037n8833w         0         0         0         2           cha         6           tot       1.00000           aqu         7           rhg       1.00000  
       7  rtu070                  70    6735.70068      40.31912     -88.21048     224.56628         7     sta4033n8828w         0         0         0         2           cha         7           tot       1.00000           aqu         9           rhg       1.00000  
       8  rtu080                  80    4302.08097      40.30681     -88.38083     222.08592         8     sta4037n8833w         0         0         0         2           cha         8           tot       1.00000           aqu        10           rhg       1.00000  
       9  rtu090                  90    5076.26622      40.34113     -88.25099     222.84827         9     sta4033n8828w         0         0         0         2           cha         9           tot       1.00000           aqu        11           rhg       1.00000  
      10  rtu100                 100    6229.65803      40.25530     -88.30868     222.98661        10     sta4028n8829w         0         0         0         2           cha        10           tot       1.00000           aqu        12           rhg       1.00000  
      11  rtu110                 110    9515.91776      40.23516     -88.39313     225.60408        11     sta4020n8842w         0         0         0         2           cha        11           tot       1.00000           aqu        13           rhg       1.00000  
      12  rtu120                 120   12348.28589      40.14106     -88.49013     212.12789        12     sta4017n8854w         0         0         0         2           cha        12           tot       1.00000           aqu        16           rhg       1.00000  
      13  rtu130                 130    7052.57957      40.04953     -88.50466     211.56108        13     sta4009n8840w         0         0         0         2           cha        13           tot       1.00000           aqu        18           rhg       1.00000  
      14  rtu140                 140     546.63932      40.03742     -88.57060     202.07946        14     sta4009n8861w         0         0         0         2           cha        14           tot       1.00000           aqu        19           rhg       1.00000  
      15  rtu150                 150   11612.66031      40.10393     -88.73445     214.15141        15     sta4005n8874w         0         0         0         2           cha        15           tot       1.00000           aqu        21           rhg       1.00000  
      16  rtu160                 160   10527.70723      40.04168     -88.86454     212.92970        16     sta4001n8886w         0         0         0         2           cha        16           tot       1.00000           aqu        22           rhg       1.00000  
      17  rtu170                 170    5632.02563      39.95548     -88.64758     209.21209        17     sta3994n8867w         0         0         0         2           cha        17           tot       1.00000           aqu        23           rhg       1.00000  
      18  rtu180                 180    7481.33386      39.99709     -88.95321     211.35380        18     sta3996n8899w         0         0         0         2           cha        18           tot       1.00000           aqu        24           rhg       1.00000  
      19  rtu190                 190    6351.67627      39.99167     -88.77678     205.35548        19     sta3999n8874w         0         0         0         2           cha        19           tot       1.00000           aqu        25           rhg       1.00000  
      20  rtu200                 200   15290.50931      40.01076     -88.66428     206.52269        20     sta3998n8860w         0         0         0         2           cha        20           tot       1.00000           aqu        26           rhg       1.00000  
      21  rtu210                 210    9229.05320      39.91156     -88.78872     207.15536        21     sta3990n8876w         0         0         0         2           cha        21           tot       1.00000           aqu        27           rhg       1.00000  
      22  rtu220                 220    7918.66730      39.87408     -89.11820     194.13520        22     sta3990n8908w         0         0         0         2           cha        22           tot       1.00000           aqu        29           rhg       1.00000  
      23  rtu230                 230    7910.92494      39.91135     -88.99123     204.95195        23     sta3996n8899w         0         0         0         2           cha        23           tot       1.00000           aqu        30           rhg       1.00000  
      24  rtu240                 240    1075.30048      39.83996     -88.97874     198.64516        24     sta3986n8902w         0         0         0         2           cha        24           tot       1.00000           aqu        31           rhg       1.00000  
      25  rtu250                 250    3628.05617      39.80497     -88.97327     207.43376        25     sta3978n8896w         0         0         0         2           cha        25           tot       1.00000           aqu        32           rhg       1.00000  
      26  rtu260                 260    1576.11112      39.85287     -89.02659     200.39784        26     sta3986n8902w         0         0         0         2           cha        26           tot       1.00000           aqu        33           rhg       1.00000  
      27  rtu270                 270    9110.22150      39.85168     -88.88515     200.88719        27     sta3987n8886w         0         0         0         2           res         1           tot       1.00000           aqu        34           rhg       1.00000  
      28  rtu280                 280   12552.07224      39.78140     -89.39172     175.11500        28     sta3983n8940w         0         0         0         2           cha        27           tot       1.00000           aqu        35           rhg       1.00000  
      29  rtu290                 290    8448.68083      39.86530     -89.22989     181.26922        29     sta3984n8924w         0         0         0         2           cha        28           tot       1.00000           aqu        36           rhg       1.00000  
      30  rtu300                 300    8107.18868      39.80876     -89.14191     184.66834        30     sta3982n8912w         0         0         0         2           cha        29           tot       1.00000           aqu        37           rhg       1.00000  
      31  rtu310                 310   14641.68944      39.83366     -89.39557     180.46728        31     sta3983n8940w         0         0         0         2           cha        30           tot       1.00000           aqu        38           rhg       1.00000  
      32  rtu320                 320    9711.82651      39.75784     -89.19994     183.24979        32     sta3984n8924w         0         0         0         2           cha        31           tot       1.00000           aqu        39           rhg       1.00000  
      33  rtu330                 330    4983.07897      39.80952     -89.04897     198.54226        33     sta3977n8905w         0         0         0         2           cha        32           tot       1.00000           aqu        41           rhg       1.00000  
      34  rtu340                 340    6940.84785      39.77395     -88.82002     212.54217        34     sta3979n8882w         0         0         0         2           cha        33           tot       1.00000           aqu        43           rhg       1.00000  
      35  rtu350                 350    8729.47660      39.72142     -89.39431     177.75954        35     sta3976n8944w         0         0         0         2           cha        34           tot       1.00000           aqu        44           rhg       1.00000  
      36  rtu360                 360   11673.80466      39.72234     -89.08922     193.41506        36     sta3977n8905w         0         0         0         2           cha        35           tot       1.00000           aqu        45           rhg       1.00000  
      37  rtu370                 370    6983.02512      39.70856     -89.25168     184.55186        37     sta3977n8932w         0         0         0         2           cha        36           tot       1.00000           aqu        46           rhg       1.00000  
      38  rtu380                 380    9548.40017      39.65850     -89.24431     184.21057        38     sta3977n8932w         0         0         0         2           cha        37           tot       1.00000           aqu        48           rhg       1.00000  
      39  rtu390                 390    7369.47536      40.44042     -88.31901     232.55567        39     sta4047n8830w         0         0         0         2           cha        38           tot       1.00000           aqu         4           rhg       1.00000  
      40  rtu400                 400     879.23114      40.28642     -88.49258     233.07798        40     sta4024n8846w         0         0         0         2           cha        39           tot       1.00000           aqu         8           rhg       1.00000  
      41  rtu410                 410    6459.47763      40.18297     -88.51866     220.21890        41     sta4017n8854w         0         0         0         2           cha        40           tot       1.00000           aqu        14           rhg       1.00000  
      42  rtu420                 420    6767.33786      40.12644     -88.41324     216.36285        42     sta4009n8840w         0         0         0         2           cha        41           tot       1.00000           aqu        15           rhg       1.00000  
      43  rtu430                 430   14016.43474      40.13999     -88.62175     214.98969        43     sta4009n8861w         0         0         0         2           cha        42           tot       1.00000           aqu        17           rhg       1.00000  
      44  rtu440                 440    5128.78072      40.07668     -88.80640     213.52994        44     sta4005n8874w         0         0         0         2           cha        43           tot       1.00000           aqu        20           rhg       1.00000  
      45  rtu450                 450    7252.68913      39.91699     -88.91603     205.95073        45     sta3990n8888w         0         0         0         2           cha        44           tot       1.00000           aqu        28           rhg       1.00000  
      46  rtu460                 460    5046.43785      39.83598     -88.81876     208.66744        46     sta3979n8882w         0         0         0         2           cha        45           tot       1.00000           aqu        40           rhg       1.00000  
      47  rtu470                 470    4332.81375      39.76260     -88.94759     211.71107        47     sta3978n8896w         0         0         0         2           cha        46           tot       1.00000           aqu        42           rhg       1.00000  
      48  rtu480                 480    6100.69196      39.71978     -88.89939     212.93438        48     sta3978n8896w         0         0         0         2           cha        47           tot       1.00000           aqu        47           rhg       1.00000  
