rout_unit.def: written by SWAT+ editor v1.2.3 on 2020-11-02 07:04
      id              name  elem_tot  elements  
       1            rtu010         2         1       -23  
       2            rtu020         2        24       -65  
       3            rtu030         2        66      -108  
       4            rtu040         2       127      -143  
       5            rtu050         2       144      -169  
       6            rtu060         2       170      -191  
       7            rtu070         2       202      -223  
       8            rtu080         2       224      -246  
       9            rtu090         2       247      -265  
      10            rtu100         2       266      -294  
      11            rtu110         2       295      -353  
      12            rtu120         2       405      -442  
      13            rtu130         2       459      -472  
      14            rtu140         2       473      -499  
      15            rtu150         2       520      -539  
      16            rtu160         2       540      -561  
      17            rtu170         2       562      -573  
      18            rtu180         2       574      -593  
      19            rtu190         2       594      -629  
      20            rtu200         2       630      -676  
      21            rtu210         2       677      -728  
      22            rtu220         2       755      -787  
      23            rtu230         2       788      -836  
      24            rtu240         2       837      -863  
      25            rtu250         2       864      -908  
      26            rtu260         2       909      -939  
      27            rtu270         2       940      -960  
      28            rtu280         2       961     -1015  
      29            rtu290         2      1016     -1038  
      30            rtu300         2      1039     -1081  
      31            rtu310         2      1082     -1106  
      32            rtu320         2      1107     -1139  
      33            rtu330         2      1175     -1218  
      34            rtu340         2      1251     -1288  
      35            rtu350         2      1289     -1310  
      36            rtu360         2      1311     -1339  
      37            rtu370         2      1340     -1353  
      38            rtu380         2      1382     -1387  
      39            rtu390         2       109      -126  
      40            rtu400         2       192      -201  
      41            rtu410         2       354      -373  
      42            rtu420         2       374      -404  
      43            rtu430         2       443      -458  
      44            rtu440         2       500      -519  
      45            rtu450         2       729      -754  
      46            rtu460         2      1140     -1174  
      47            rtu470         2      1219     -1250  
      48            rtu480         2      1354     -1381  
