soil_plant.ini: written by SWAT+ editor v1.2.3 on 2020-11-02 07:04
name                   sw_frac         nutrients              pest              path              hmet              salt  
soilplant1             0.00000          soilnut1              null              null              null              null  
soilplant2             0.00000          soilnut2              null              null              null              null