soils.sol: written by SWAT+ editor v1.2.3 on 2020-11-06 08:15
name                            nly           hyd_grp        dp_tot    anion_excl      perc_crk  texture                              dp            bd           awc        soil_k        carbon          clay          silt          sand          rock           alb        usle_k            ec         caco3            ph  
IL014                             4                 B    1524.00000       0.10000       0.50000  SICL-SICL-CL-SICL          
                                                                                                                               355.60000       1.38000       0.21000       3.20000       3.49000      31.00000      62.13000       6.87000       1.15000       0.01000       0.16800       0.00000              null              null  
                                                                                                                              1041.40000       1.52950       0.21000       1.10000       0.29000      27.50000      65.34000       7.16000       1.27000       0.13000       0.16800       0.00000              null              null  
                                                                                                                              1193.80000       1.63300       0.17000       3.90000       0.15000      27.50000      45.13000      27.37000       4.11000       0.17000       0.16800       0.00000              null              null  
                                                                                                                              1524.00000       1.78250       0.18000       0.70000       0.06000      27.50000      65.34000       7.16000       7.55000       0.21000       0.16800       0.00000              null              null  
IL016                             3                 B    1524.00000       0.10000       0.50000  SICL-SICL-SICL                                                                                                                                                              
                                                                                                                               406.40000       1.43750       0.21000       1.10000       2.91000      37.50000      55.03000       7.47000       1.20000       0.01000       0.16800       0.00000              null              null  
                                                                                                                               660.40000       1.66750       0.18000       0.35000       0.58000      39.50000      53.27000       7.23000       2.80000       0.08000       0.16800       0.00000              null              null  
                                                                                                                              1524.00000       1.66750       0.18000       0.88000       0.15000      35.00000      47.76000      17.24000       5.62000       0.17000       0.16800       0.00000              null              null  
IL010                             3                 B    1524.00000       0.10000       0.50000  SIL-SICL-L                                                                                                                                                                  
                                                                                                                               457.20000       1.49500       0.21000       8.70000       2.62000      23.50000      52.04000      24.46000       0.00000       0.01000       0.16800       0.00000              null              null  
                                                                                                                              1143.00000       1.55250       0.18000       3.30000       0.29000      33.50000      47.83000      18.70000       0.00000       0.13000       0.25800       0.00000              null              null  
                                                                                                                              1524.00000       1.81700       0.14000       9.20000       0.06000      25.00000      36.48000      38.52000       6.20000       0.21000       0.22200       0.00000              null              null  
IL046                             3                 B    1524.00000       0.10000       0.50000  L-L-L                                                                                                                                                                       
                                                                                                                               101.60000       1.49500       0.15000      14.00000       0.87000      25.00000      36.48000      38.52000       5.32000       0.04000       0.16800       0.00000              null              null  
                                                                                                                               406.40000       1.66750       0.14000      12.00000       0.15000      24.00000      36.97000      39.03000       8.88000       0.17000       0.19200       0.00000              null              null  
                                                                                                                              1524.00000       2.03550       0.13000       8.80000       0.15000      24.00000      36.97000      39.03000      10.66000       0.17000       0.19200       0.00000              null              null  
IL012                             4                 B    1524.00000       0.10000       0.50000  SICL-SICL-CL-SICL                                                                                                                                                           
                                                                                                                               355.60000       1.38000       0.21000       3.20000       3.49000      31.00000      62.13000       6.87000       1.15000       0.01000       0.16800       0.00000              null              null  
                                                                                                                              1041.40000       1.52950       0.21000       1.10000       0.29000      27.50000      65.34000       7.16000       1.27000       0.13000       0.16800       0.00000              null              null  
                                                                                                                              1193.80000       1.63300       0.17000       3.90000       0.15000      27.50000      45.13000      27.37000       4.11000       0.17000       0.16800       0.00000              null              null  
                                                                                                                              1524.00000       1.78250       0.18000       0.70000       0.06000      27.50000      65.34000       7.16000       7.55000       0.21000       0.16800       0.00000              null              null  
IL081                             3                 B    1524.00000       0.10000       0.50000  SICL-SICL-SICL                                                                                                                                                              
                                                                                                                               406.40000       1.43750       0.21000       1.10000       2.91000      37.50000      55.03000       7.47000       1.20000       0.01000       0.16800       0.00000              null              null  
                                                                                                                               660.40000       1.66750       0.18000       0.35000       0.58000      39.50000      53.27000       7.23000       2.80000       0.08000       0.16800       0.00000              null              null  
                                                                                                                              1524.00000       1.66750       0.18000       0.88000       0.15000      35.00000      47.76000      17.24000       5.62000       0.17000       0.16800       0.00000              null              null  
IL048                             4                 C    1524.00000       0.10000       0.50000  SIL-CL-SICL-SICL                                                                                                                                                            
                                                                                                                               228.60000       1.66750       0.19000       5.70000       1.45000      24.50000      51.36000      24.14000       2.76000       0.01000       0.22200       0.00000              null              null  
                                                                                                                               711.20000       1.87450       0.16000       1.90000       0.44000      39.50000      31.27000      29.23000       6.53000       0.10000       0.19200       0.00000              null              null  
                                                                                                                              1066.80000       1.95500       0.17000       0.36000       0.20000      38.50000      54.15000       7.35000       6.81000       0.16000       0.25800       0.00000              null              null  
                                                                                                                              1524.00000       1.95500       0.16000       2.50000       0.20000      33.50000      47.80000      18.70000       6.81000       0.16000       0.25800       0.00000              null              null  
IL018                             3                 D    1524.00000       0.10000       0.50000  SIC-SIC-SIC                                                                                                                                                                 
                                                                                                                               330.20000       1.61000       0.21000       1.10000       3.49000      44.00000      48.50000       7.50000       0.00000       0.01000       0.16800       0.00000              null              null  
                                                                                                                              1143.00000       1.70200       0.15000       0.25000       0.29000      47.00000      47.43000       5.57000       3.09000       0.13000       0.16800       0.00000              null              null  
                                                                                                                              1524.00000       1.92050       0.13000       0.19000       0.15000      49.00000      45.64000       5.36000       5.11000       0.17000       0.16800       0.00000              null              null  
IL073                             3                 B    1524.00000       0.10000       0.50000  SIL-SICL-L                                                                                                                                                                  
                                                                                                                               304.80000       1.55250       0.22000       2.00000       2.03000      22.50000      67.96000       9.54000       0.00000       0.01000       0.19200       0.00000              null              null  
                                                                                                                              1066.80000       1.61000       0.20000       0.96000       0.29000      31.00000      62.13000       6.87000       2.70000       0.13000       0.25800       0.00000              null              null  
                                                                                                                              1524.00000       1.78250       0.16000       4.90000       0.15000      25.00000      42.74000      32.26000       3.86000       0.17000       0.25800       0.00000              null              null  
IL003                             3                 B    1524.00000       0.10000       0.50000  SIL-SICL-SICL                                                                                                                                                               
                                                                                                                               254.00000       1.43750       0.21000       8.70000       2.62000      23.50000      52.04000      24.46000       0.00000       0.01000       0.16800       0.00000              null              null  
                                                                                                                              1270.00000       1.58700       0.18000       0.29000       0.44000      39.00000      53.71000       7.29000       0.00000       0.10000       0.25800       0.00000              null              null  
                                                                                                                              1524.00000       1.63300       0.17000       2.70000       0.15000      27.50000      52.50000      20.00000       0.00000       0.17000       0.25800       0.00000              null              null  
IL028                             4                 B    1651.00000       0.10000       0.50000  SICL-SICL-SICL-SICL                              		                                                                                                                     
                                                                                                                               431.80000       1.49500       0.21000       2.50000       2.62000      31.00000      62.13000       6.87000       0.00000       0.01000       0.16800       0.00000              null              null  
                                                                                                                               812.80000       1.49500       0.21000       1.20000       1.16000      31.00000      62.13000       6.87000       0.00000       0.02000       0.16800       0.00000              null              null  
                                                                                                                              1473.20000       1.58700       0.20000       1.00000       0.58000      30.00000      63.09000       6.91000       0.00000       0.08000       0.16800       0.00000              null              null  
                                                                                                                              1651.00000       1.63300       0.20000       0.80000       0.29000      27.50000      65.34000       7.16000       0.00000       0.13000       0.16800       0.00000              null              null  
IL009                             3                 B    1524.00000       0.10000       0.50000  SIL-SICL-LFS                                                                                                                                                                
                                                                                                                               355.60000       1.55250       0.23000       2.40000       2.33000      23.50000      67.08000       9.42000       0.00000       0.01000       0.19200       0.00000              null              null  
                                                                                                                              1397.00000       1.70200       0.21000       1.00000       0.44000      29.50000      63.54000       6.96000       0.00000       0.10000       0.25800       0.00000              null              null  
                                                                                                                              1524.00000       1.89750       0.07000     300.00000       0.15000       6.50000       6.68000      86.82000       0.00000       0.17000       0.09000       0.00000              null              null  
IL036                             4                 C    1524.00000       0.10000       0.50000  SIL-SIL-SICL-SICL                             	                                                                                                                             
                                                                                                                               177.80000       1.55250       0.19000       6.30000       1.16000      21.00000      52.74000      26.26000       0.00000       0.02000       0.22200       0.00000              null              null  
                                                                                                                               304.80000       1.61000       0.18000       5.20000       0.35000      21.00000      52.74000      26.26000       0.00000       0.12000       0.22200       0.00000              null              null  
                                                                                                                               762.00000       1.58700       0.17000       0.24000       0.15000      38.50000      54.15000       7.35000       0.00000       0.17000       0.22200       0.00000              null              null  
                                                                                                                              1524.00000       1.70200       0.17000       2.70000       0.15000      31.00000      49.00000      20.00000       0.00000       0.17000       0.22200       0.00000              null              null  
IL041                             3                 B    1524.00000       0.10000       0.50000  SIL-SICL-LFS                                                                                                                                                                
                                                                                                                               203.20000       1.49500       0.23000       0.61000       0.87000      23.50000      67.08000       9.42000       0.00000       0.04000       0.22200       0.00000              null              null  
                                                                                                                              1219.20000       1.55250       0.22000       0.33000       0.29000      30.00000      63.09000       6.91000       0.00000       0.13000       0.22200       0.00000              null              null  
                                                                                                                              1524.00000       2.12750       0.09000     160.00000       0.10000       6.50000       6.68000      86.82000       3.54000       0.19000       0.10200       0.00000              null              null  
