tiledrain.str: written by SWAT+ editor v1.2.3 on 2020-11-02 07:04
name                        dp          t_fc           lag           rad          dist         drain          pump      lat_ksat  
mw24_1219           1040.00000      24.00000      24.00000      15.00000   19800.00000      10.00000       0.00000       2.20000  
