topography.hyd: written by SWAT+ editor v1.2.3 on 2020-11-02 07:04
name                       slp       slp_len       lat_len      dist_cha         depos  
topohru0001            0.06104      75.00000      75.00000     121.00000       0.00000  
topohru0002            0.02964     105.00000     105.00000     121.00000       0.00000  
topohru0003            0.02964     105.00000     105.00000     121.00000       0.00000  
topohru0004            0.06105      75.00000      75.00000     121.00000       0.00000  
topohru0005            0.05748      75.00000      75.00000     121.00000       0.00000  
topohru0006            0.02961     105.00000     105.00000     121.00000       0.00000  
topohru0007            0.05733      75.00000      75.00000     121.00000       0.00000  
topohru0008            0.02960     105.00000     105.00000     121.00000       0.00000  
topohru0009            0.00935     120.00000     120.00000     121.00000       0.00000  
topohru0010            0.02530     105.00000     105.00000     121.00000       0.00000  
topohru0011            0.01015     105.00000     105.00000     121.00000       0.00000  
topohru0012            0.02543     105.00000     105.00000     121.00000       0.00000  
topohru0013            0.00941     120.00000     120.00000     121.00000       0.00000  
topohru0014            0.01009     105.00000     105.00000     121.00000       0.00000  
topohru0015            0.02493     105.00000     105.00000     121.00000       0.00000  
topohru0016            0.02546     105.00000     105.00000     121.00000       0.00000  
topohru0017            0.00938     120.00000     120.00000     121.00000       0.00000  
topohru0018            0.01066     105.00000     105.00000     121.00000       0.00000  
topohru0019            0.02474     105.00000     105.00000     121.00000       0.00000  
topohru0020            0.00933     120.00000     120.00000     121.00000       0.00000  
topohru0021            0.02555     105.00000     105.00000     121.00000       0.00000  
topohru0022            0.01062     105.00000     105.00000     121.00000       0.00000  
topohru0023            0.02478     105.00000     105.00000     121.00000       0.00000  
topohru0024            0.02591     105.00000     105.00000     121.00000       0.00000  
topohru0025            0.00966     120.00000     120.00000     121.00000       0.00000  
topohru0026            0.00707     120.00000     120.00000     121.00000       0.00000  
topohru0027            0.00800     120.00000     120.00000     121.00000       0.00000  
topohru0028            0.02606     105.00000     105.00000     121.00000       0.00000  
topohru0029            0.00973     120.00000     120.00000     121.00000       0.00000  
topohru0030            0.00713     120.00000     120.00000     121.00000       0.00000  
topohru0031            0.00801     120.00000     120.00000     121.00000       0.00000  
topohru0032            0.06144      75.00000      75.00000     121.00000       0.00000  
topohru0033            0.03015      90.00000      90.00000     121.00000       0.00000  
topohru0034            0.06159      75.00000      75.00000     121.00000       0.00000  
topohru0035            0.03007      90.00000      90.00000     121.00000       0.00000  
topohru0036            0.06173      75.00000      75.00000     121.00000       0.00000  
topohru0037            0.02975     105.00000     105.00000     121.00000       0.00000  
topohru0038            0.00971     120.00000     120.00000     121.00000       0.00000  
topohru0039            0.07933      75.00000      75.00000     121.00000       0.00000  
topohru0040            0.02998     105.00000     105.00000     121.00000       0.00000  
topohru0041            0.00758     120.00000     120.00000     121.00000       0.00000  
topohru0042            0.00680     120.00000     120.00000     121.00000       0.00000  
topohru0043            0.02817     105.00000     105.00000     121.00000       0.00000  
topohru0044            0.02572     105.00000     105.00000     121.00000       0.00000  
topohru0045            0.01022     105.00000     105.00000     121.00000       0.00000  
topohru0046            0.00763     120.00000     120.00000     121.00000       0.00000  
topohru0047            0.00782     120.00000     120.00000     121.00000       0.00000  
topohru0048            0.05743      75.00000      75.00000     121.00000       0.00000  
topohru0049            0.03002      90.00000      90.00000     121.00000       0.00000  
topohru0050            0.02894     105.00000     105.00000     121.00000       0.00000  
topohru0051            0.05612      75.00000      75.00000     121.00000       0.00000  
topohru0052            0.01288     105.00000     105.00000     121.00000       0.00000  
topohru0053            0.03005      90.00000      90.00000     121.00000       0.00000  
topohru0054            0.05737      75.00000      75.00000     121.00000       0.00000  
topohru0055            0.05646      75.00000      75.00000     121.00000       0.00000  
topohru0056            0.02883     105.00000     105.00000     121.00000       0.00000  
topohru0057            0.01295     105.00000     105.00000     121.00000       0.00000  
topohru0058            0.02580     105.00000     105.00000     121.00000       0.00000  
topohru0059            0.01022     105.00000     105.00000     121.00000       0.00000  
topohru0060            0.00766     120.00000     120.00000     121.00000       0.00000  
topohru0061            0.00778     120.00000     120.00000     121.00000       0.00000  
topohru0062            0.00705     120.00000     120.00000     121.00000       0.00000  
topohru0063            0.00736     120.00000     120.00000     121.00000       0.00000  
topohru0064            0.00706     120.00000     120.00000     121.00000       0.00000  
topohru0065            0.00736     120.00000     120.00000     121.00000       0.00000  
topohru0066            0.01011     105.00000     105.00000     121.00000       0.00000  
topohru0067            0.02739     105.00000     105.00000     121.00000       0.00000  
topohru0068            0.01015     105.00000     105.00000     121.00000       0.00000  
topohru0069            0.02528     105.00000     105.00000     121.00000       0.00000  
topohru0070            0.00726     120.00000     120.00000     121.00000       0.00000  
topohru0071            0.01003     105.00000     105.00000     121.00000       0.00000  
topohru0072            0.02732     105.00000     105.00000     121.00000       0.00000  
topohru0073            0.01018     105.00000     105.00000     121.00000       0.00000  
topohru0074            0.02535     105.00000     105.00000     121.00000       0.00000  
topohru0075            0.00728     120.00000     120.00000     121.00000       0.00000  
topohru0076            0.01034     105.00000     105.00000     121.00000       0.00000  
topohru0077            0.02534     105.00000     105.00000     121.00000       0.00000  
topohru0078            0.00699     120.00000     120.00000     121.00000       0.00000  
topohru0079            0.01025     105.00000     105.00000     121.00000       0.00000  
topohru0080            0.02533     105.00000     105.00000     121.00000       0.00000  
topohru0081            0.00701     120.00000     120.00000     121.00000       0.00000  
topohru0082            0.02973     105.00000     105.00000     121.00000       0.00000  
topohru0083            0.05853      75.00000      75.00000     121.00000       0.00000  
topohru0084            0.08039      65.00000      65.00000     121.00000       0.00000  
topohru0085            0.02828     105.00000     105.00000     121.00000       0.00000  
topohru0086            0.00923     120.00000     120.00000     121.00000       0.00000  
topohru0087            0.02974     105.00000     105.00000     121.00000       0.00000  
topohru0088            0.05649      75.00000      75.00000     121.00000       0.00000  
topohru0089            0.02912     105.00000     105.00000     121.00000       0.00000  
topohru0090            0.06166      75.00000      75.00000     121.00000       0.00000  
topohru0091            0.00976     120.00000     120.00000     121.00000       0.00000  
topohru0092            0.02816     105.00000     105.00000     121.00000       0.00000  
topohru0093            0.00776     120.00000     120.00000     121.00000       0.00000  
topohru0094            0.07843      75.00000      75.00000     121.00000       0.00000  
topohru0095            0.00613     120.00000     120.00000     121.00000       0.00000  
topohru0096            0.06625      75.00000      75.00000     121.00000       0.00000  
topohru0097            0.00827     120.00000     120.00000     121.00000       0.00000  
topohru0098            0.02904     105.00000     105.00000     121.00000       0.00000  
topohru0099            0.07164      75.00000      75.00000     121.00000       0.00000  
topohru0100            0.00821     120.00000     120.00000     121.00000       0.00000  
topohru0101            0.02851     105.00000     105.00000     121.00000       0.00000  
topohru0102            0.00581     120.00000     120.00000     121.00000       0.00000  
topohru0103            0.02819     105.00000     105.00000     121.00000       0.00000  
topohru0104            0.02973     105.00000     105.00000     121.00000       0.00000  
topohru0105            0.05853      75.00000      75.00000     121.00000       0.00000  
topohru0106            0.08039      65.00000      65.00000     121.00000       0.00000  
topohru0107            0.02828     105.00000     105.00000     121.00000       0.00000  
topohru0108            0.00923     120.00000     120.00000     121.00000       0.00000  
topohru0109            0.01026     105.00000     105.00000     121.00000       0.00000  
topohru0110            0.02695     105.00000     105.00000     121.00000       0.00000  
topohru0111            0.02707     105.00000     105.00000     121.00000       0.00000  
topohru0112            0.01014     105.00000     105.00000     121.00000       0.00000  
topohru0113            0.01023     105.00000     105.00000     121.00000       0.00000  
topohru0114            0.02699     105.00000     105.00000     121.00000       0.00000  
topohru0115            0.01011     105.00000     105.00000     121.00000       0.00000  
topohru0116            0.02702     105.00000     105.00000     121.00000       0.00000  
topohru0117            0.01005     105.00000     105.00000     121.00000       0.00000  
topohru0118            0.02703     105.00000     105.00000     121.00000       0.00000  
topohru0119            0.02707     105.00000     105.00000     121.00000       0.00000  
topohru0120            0.01019     105.00000     105.00000     121.00000       0.00000  
topohru0121            0.00716     120.00000     120.00000     121.00000       0.00000  
topohru0122            0.01006     105.00000     105.00000     121.00000       0.00000  
topohru0123            0.02704     105.00000     105.00000     121.00000       0.00000  
topohru0124            0.02702     105.00000     105.00000     121.00000       0.00000  
topohru0125            0.01021     105.00000     105.00000     121.00000       0.00000  
topohru0126            0.00718     120.00000     120.00000     121.00000       0.00000  
topohru0127            0.02730     105.00000     105.00000     121.00000       0.00000  
topohru0128            0.00999     120.00000     120.00000     121.00000       0.00000  
topohru0129            0.00741     120.00000     120.00000     121.00000       0.00000  
topohru0130            0.02735     105.00000     105.00000     121.00000       0.00000  
topohru0131            0.00972     120.00000     120.00000     121.00000       0.00000  
topohru0132            0.00704     120.00000     120.00000     121.00000       0.00000  
topohru0133            0.00978     120.00000     120.00000     121.00000       0.00000  
topohru0134            0.02743     105.00000     105.00000     121.00000       0.00000  
topohru0135            0.00700     120.00000     120.00000     121.00000       0.00000  
topohru0136            0.02725     105.00000     105.00000     121.00000       0.00000  
topohru0137            0.00992     120.00000     120.00000     121.00000       0.00000  
topohru0138            0.00744     120.00000     120.00000     121.00000       0.00000  
topohru0139            0.00916     120.00000     120.00000     121.00000       0.00000  
topohru0140            0.02782     105.00000     105.00000     121.00000       0.00000  
topohru0141            0.00661     120.00000     120.00000     121.00000       0.00000  
topohru0142            0.00884     120.00000     120.00000     121.00000       0.00000  
topohru0143            0.02725     105.00000     105.00000     121.00000       0.00000  
topohru0144            0.00882     120.00000     120.00000     121.00000       0.00000  
topohru0145            0.02784     105.00000     105.00000     121.00000       0.00000  
topohru0146            0.01085     105.00000     105.00000     121.00000       0.00000  
topohru0147            0.02821     105.00000     105.00000     121.00000       0.00000  
topohru0148            0.00617     120.00000     120.00000     121.00000       0.00000  
topohru0149            0.00884     120.00000     120.00000     121.00000       0.00000  
topohru0150            0.02790     105.00000     105.00000     121.00000       0.00000  
topohru0151            0.02830     105.00000     105.00000     121.00000       0.00000  
topohru0152            0.01076     105.00000     105.00000     121.00000       0.00000  
topohru0153            0.00617     120.00000     120.00000     121.00000       0.00000  
topohru0154            0.02800     105.00000     105.00000     121.00000       0.00000  
topohru0155            0.00901     120.00000     120.00000     121.00000       0.00000  
topohru0156            0.02793     105.00000     105.00000     121.00000       0.00000  
topohru0157            0.01125     105.00000     105.00000     121.00000       0.00000  
topohru0158            0.00595     120.00000     120.00000     121.00000       0.00000  
topohru0159            0.02788     105.00000     105.00000     121.00000       0.00000  
topohru0160            0.00900     120.00000     120.00000     121.00000       0.00000  
topohru0161            0.02801     105.00000     105.00000     121.00000       0.00000  
topohru0162            0.01127     105.00000     105.00000     121.00000       0.00000  
topohru0163            0.00599     120.00000     120.00000     121.00000       0.00000  
topohru0164            0.00861     120.00000     120.00000     121.00000       0.00000  
topohru0165            0.02707     105.00000     105.00000     121.00000       0.00000  
topohru0166            0.00622     120.00000     120.00000     121.00000       0.00000  
topohru0167            0.00847     120.00000     120.00000     121.00000       0.00000  
topohru0168            0.02724     105.00000     105.00000     121.00000       0.00000  
topohru0169            0.00629     120.00000     120.00000     121.00000       0.00000  
topohru0170            0.00914     120.00000     120.00000     121.00000       0.00000  
topohru0171            0.02655     105.00000     105.00000     121.00000       0.00000  
topohru0172            0.00820     120.00000     120.00000     121.00000       0.00000  
topohru0173            0.00732     120.00000     120.00000     121.00000       0.00000  
topohru0174            0.02648     105.00000     105.00000     121.00000       0.00000  
topohru0175            0.00925     120.00000     120.00000     121.00000       0.00000  
topohru0176            0.00825     120.00000     120.00000     121.00000       0.00000  
topohru0177            0.00732     120.00000     120.00000     121.00000       0.00000  
topohru0178            0.00871     120.00000     120.00000     121.00000       0.00000  
topohru0179            0.02676     105.00000     105.00000     121.00000       0.00000  
topohru0180            0.00855     120.00000     120.00000     121.00000       0.00000  
topohru0181            0.00696     120.00000     120.00000     121.00000       0.00000  
topohru0182            0.00877     120.00000     120.00000     121.00000       0.00000  
topohru0183            0.02668     105.00000     105.00000     121.00000       0.00000  
topohru0184            0.00858     120.00000     120.00000     121.00000       0.00000  
topohru0185            0.00698     120.00000     120.00000     121.00000       0.00000  
topohru0186            0.00782     120.00000     120.00000     121.00000       0.00000  
topohru0187            0.02779     105.00000     105.00000     121.00000       0.00000  
topohru0188            0.00633     120.00000     120.00000     121.00000       0.00000  
topohru0189            0.00642     120.00000     120.00000     121.00000       0.00000  
topohru0190            0.10680      65.00000      65.00000     121.00000       0.00000  
topohru0191            0.02840     105.00000     105.00000     121.00000       0.00000  
topohru0192            0.00854     120.00000     120.00000     121.00000       0.00000  
topohru0193            0.02705     105.00000     105.00000     121.00000       0.00000  
topohru0194            0.01077     105.00000     105.00000     121.00000       0.00000  
topohru0195            0.00793     120.00000     120.00000     121.00000       0.00000  
topohru0196            0.02638     105.00000     105.00000     121.00000       0.00000  
topohru0197            0.00706     120.00000     120.00000     121.00000       0.00000  
topohru0198            0.02697     105.00000     105.00000     121.00000       0.00000  
topohru0199            0.00585     120.00000     120.00000     121.00000       0.00000  
topohru0200            0.02908     105.00000     105.00000     121.00000       0.00000  
topohru0201            0.08706      65.00000      65.00000     121.00000       0.00000  
topohru0202            0.00994     120.00000     120.00000     121.00000       0.00000  
topohru0203            0.02751     105.00000     105.00000     121.00000       0.00000  
topohru0204            0.00591     120.00000     120.00000     121.00000       0.00000  
topohru0205            0.00769     120.00000     120.00000     121.00000       0.00000  
topohru0206            0.00998     120.00000     120.00000     121.00000       0.00000  
topohru0207            0.02753     105.00000     105.00000     121.00000       0.00000  
topohru0208            0.00588     120.00000     120.00000     121.00000       0.00000  
topohru0209            0.00772     120.00000     120.00000     121.00000       0.00000  
topohru0210            0.00950     120.00000     120.00000     121.00000       0.00000  
topohru0211            0.02812     105.00000     105.00000     121.00000       0.00000  
topohru0212            0.00568     120.00000     120.00000     121.00000       0.00000  
topohru0213            0.00776     120.00000     120.00000     121.00000       0.00000  
topohru0214            0.00951     120.00000     120.00000     121.00000       0.00000  
topohru0215            0.02808     105.00000     105.00000     121.00000       0.00000  
topohru0216            0.00574     120.00000     120.00000     121.00000       0.00000  
topohru0217            0.00780     120.00000     120.00000     121.00000       0.00000  
topohru0218            0.02890     105.00000     105.00000     121.00000       0.00000  
topohru0219            0.06437      75.00000      75.00000     121.00000       0.00000  
topohru0220            0.00874     120.00000     120.00000     121.00000       0.00000  
topohru0221            0.00568     120.00000     120.00000     121.00000       0.00000  
topohru0222            0.00694     120.00000     120.00000     121.00000       0.00000  
topohru0223            0.02742     105.00000     105.00000     121.00000       0.00000  
topohru0224            0.00835     120.00000     120.00000     121.00000       0.00000  
topohru0225            0.00781     120.00000     120.00000     121.00000       0.00000  
topohru0226            0.00840     120.00000     120.00000     121.00000       0.00000  
topohru0227            0.00784     120.00000     120.00000     121.00000       0.00000  
topohru0228            0.00769     120.00000     120.00000     121.00000       0.00000  
topohru0229            0.02753     105.00000     105.00000     121.00000       0.00000  
topohru0230            0.00708     120.00000     120.00000     121.00000       0.00000  
topohru0231            0.02690     105.00000     105.00000     121.00000       0.00000  
topohru0232            0.00831     120.00000     120.00000     121.00000       0.00000  
topohru0233            0.02894     105.00000     105.00000     121.00000       0.00000  
topohru0234            0.08049      65.00000      65.00000     121.00000       0.00000  
topohru0235            0.00851     120.00000     120.00000     121.00000       0.00000  
topohru0236            0.00747     120.00000     120.00000     121.00000       0.00000  
topohru0237            0.00847     120.00000     120.00000     121.00000       0.00000  
topohru0238            0.00741     120.00000     120.00000     121.00000       0.00000  
topohru0239            0.00971     120.00000     120.00000     121.00000       0.00000  
topohru0240            0.02568     105.00000     105.00000     121.00000       0.00000  
topohru0241            0.00763     120.00000     120.00000     121.00000       0.00000  
topohru0242            0.02821     105.00000     105.00000     121.00000       0.00000  
topohru0243            0.00814     120.00000     120.00000     121.00000       0.00000  
topohru0244            0.09398      65.00000      65.00000     121.00000       0.00000  
topohru0245            0.00826     120.00000     120.00000     121.00000       0.00000  
topohru0246            0.02855     105.00000     105.00000     121.00000       0.00000  
topohru0247            0.00989     120.00000     120.00000     121.00000       0.00000  
topohru0248            0.02715     105.00000     105.00000     121.00000       0.00000  
topohru0249            0.00622     120.00000     120.00000     121.00000       0.00000  
topohru0250            0.00663     120.00000     120.00000     121.00000       0.00000  
topohru0251            0.00978     120.00000     120.00000     121.00000       0.00000  
topohru0252            0.02717     105.00000     105.00000     121.00000       0.00000  
topohru0253            0.00626     120.00000     120.00000     121.00000       0.00000  
topohru0254            0.00660     120.00000     120.00000     121.00000       0.00000  
topohru0255            0.00990     120.00000     120.00000     121.00000       0.00000  
topohru0256            0.02695     105.00000     105.00000     121.00000       0.00000  
topohru0257            0.00605     120.00000     120.00000     121.00000       0.00000  
topohru0258            0.00629     120.00000     120.00000     121.00000       0.00000  
topohru0259            0.02714     105.00000     105.00000     121.00000       0.00000  
topohru0260            0.00991     120.00000     120.00000     121.00000       0.00000  
topohru0261            0.00607     120.00000     120.00000     121.00000       0.00000  
topohru0262            0.00625     120.00000     120.00000     121.00000       0.00000  
topohru0263            0.00599     120.00000     120.00000     121.00000       0.00000  
topohru0264            0.00885     120.00000     120.00000     121.00000       0.00000  
topohru0265            0.00545     120.00000     120.00000     121.00000       0.00000  
topohru0266            0.02667     105.00000     105.00000     121.00000       0.00000  
topohru0267            0.00965     120.00000     120.00000     121.00000       0.00000  
topohru0268            0.00957     120.00000     120.00000     121.00000       0.00000  
topohru0269            0.00964     120.00000     120.00000     121.00000       0.00000  
topohru0270            0.02679     105.00000     105.00000     121.00000       0.00000  
topohru0271            0.00964     120.00000     120.00000     121.00000       0.00000  
topohru0272            0.01020     105.00000     105.00000     121.00000       0.00000  
topohru0273            0.02676     105.00000     105.00000     121.00000       0.00000  
topohru0274            0.00961     120.00000     120.00000     121.00000       0.00000  
topohru0275            0.01015     105.00000     105.00000     121.00000       0.00000  
topohru0276            0.02671     105.00000     105.00000     121.00000       0.00000  
topohru0277            0.00961     120.00000     120.00000     121.00000       0.00000  
topohru0278            0.01371     105.00000     105.00000     121.00000       0.00000  
topohru0279            0.05171      75.00000      75.00000     121.00000       0.00000  
topohru0280            0.02851     105.00000     105.00000     121.00000       0.00000  
topohru0281            0.02777     105.00000     105.00000     121.00000       0.00000  
topohru0282            0.01138     105.00000     105.00000     121.00000       0.00000  
topohru0283            0.01382     105.00000     105.00000     121.00000       0.00000  
topohru0284            0.02866     105.00000     105.00000     121.00000       0.00000  
topohru0285            0.05282      75.00000      75.00000     121.00000       0.00000  
topohru0286            0.02809     105.00000     105.00000     121.00000       0.00000  
topohru0287            0.07725      75.00000      75.00000     121.00000       0.00000  
topohru0288            0.00987     120.00000     120.00000     121.00000       0.00000  
topohru0289            0.02866     105.00000     105.00000     121.00000       0.00000  
topohru0290            0.01385     105.00000     105.00000     121.00000       0.00000  
topohru0291            0.05281      75.00000      75.00000     121.00000       0.00000  
topohru0292            0.02806     105.00000     105.00000     121.00000       0.00000  
topohru0293            0.00983     120.00000     120.00000     121.00000       0.00000  
topohru0294            0.07601      75.00000      75.00000     121.00000       0.00000  
topohru0295            0.00959     120.00000     120.00000     121.00000       0.00000  
topohru0296            0.01032     105.00000     105.00000     121.00000       0.00000  
topohru0297            0.02716     105.00000     105.00000     121.00000       0.00000  
topohru0298            0.00953     120.00000     120.00000     121.00000       0.00000  
topohru0299            0.01031     105.00000     105.00000     121.00000       0.00000  
topohru0300            0.02718     105.00000     105.00000     121.00000       0.00000  
topohru0301            0.00853     120.00000     120.00000     121.00000       0.00000  
topohru0302            0.02997     105.00000     105.00000     121.00000       0.00000  
topohru0303            0.08092      65.00000      65.00000     121.00000       0.00000  
topohru0304            0.01087     105.00000     105.00000     121.00000       0.00000  
topohru0305            0.02776     105.00000     105.00000     121.00000       0.00000  
topohru0306            0.02980     105.00000     105.00000     121.00000       0.00000  
topohru0307            0.05355      75.00000      75.00000     121.00000       0.00000  
topohru0308            0.00901     120.00000     120.00000     121.00000       0.00000  
topohru0309            0.00964     120.00000     120.00000     121.00000       0.00000  
topohru0310            0.02755     105.00000     105.00000     121.00000       0.00000  
topohru0311            0.02547     105.00000     105.00000     121.00000       0.00000  
topohru0312            0.01086     105.00000     105.00000     121.00000       0.00000  
topohru0313            0.00901     120.00000     120.00000     121.00000       0.00000  
topohru0314            0.00954     120.00000     120.00000     121.00000       0.00000  
topohru0315            0.02746     105.00000     105.00000     121.00000       0.00000  
topohru0316            0.02559     105.00000     105.00000     121.00000       0.00000  
topohru0317            0.01084     105.00000     105.00000     121.00000       0.00000  
topohru0318            0.01087     105.00000     105.00000     121.00000       0.00000  
topohru0319            0.02768     105.00000     105.00000     121.00000       0.00000  
topohru0320            0.02991     105.00000     105.00000     121.00000       0.00000  
topohru0321            0.05320      75.00000      75.00000     121.00000       0.00000  
topohru0322            0.00804     120.00000     120.00000     121.00000       0.00000  
topohru0323            0.02964     105.00000     105.00000     121.00000       0.00000  
topohru0324            0.08821      65.00000      65.00000     121.00000       0.00000  
topohru0325            0.08223      65.00000      65.00000     121.00000       0.00000  
topohru0326            0.02935     105.00000     105.00000     121.00000       0.00000  
topohru0327            0.00827     120.00000     120.00000     121.00000       0.00000  
topohru0328            0.00959     120.00000     120.00000     121.00000       0.00000  
topohru0329            0.02926     105.00000     105.00000     121.00000       0.00000  
topohru0330            0.06711      75.00000      75.00000     121.00000       0.00000  
topohru0331            0.02715     105.00000     105.00000     121.00000       0.00000  