aquifer.con: written by SWAT+ editor v1.2.3 on 2020-10-30 18:16
      id  name                gis_id          area           lat           lon          elev       aqu               wst       cst      ovfl      rule   out_tot       obj_typ    obj_id       hyd_typ          frac  
       1  aqu010                  10    8572.71073      40.43891     -88.63540     261.47543         1     sta4046n8872w         0         0         0         2           cha         1           tot       1.00000           aqu        49           rhg       1.00000  
       2  aqu020                  20    8158.56211      40.41826     -88.47431     238.19215         2     sta4043n8850w         0         0         0         2           cha         2           tot       1.00000           aqu        49           rhg       1.00000  
       3  aqu030                  30   15330.96230      40.46904     -88.40875     236.63814         3     sta4043n8850w         0         0         0         2           cha         3           tot       1.00000           aqu        49           rhg       1.00000  
       4  aqu040                  40    7369.47536      40.44042     -88.31901     232.55567         4     sta4047n8830w         0         0         0         2           cha        38           tot       1.00000           aqu        49           rhg       1.00000  
       5  aqu050                  50   11750.13790      40.33534     -88.47158     227.86688         5     sta4024n8846w         0         0         0         2           cha         4           tot       1.00000           aqu        49           rhg       1.00000  
       6  aqu060                  60    5241.43374      40.38461     -88.26536     225.14546         6     sta4033n8828w         0         0         0         2           cha         5           tot       1.00000           aqu        49           rhg       1.00000  
       7  aqu070                  70    4181.78702      40.34638     -88.34806     219.13110         7     sta4037n8833w         0         0         0         2           cha         6           tot       1.00000           aqu        49           rhg       1.00000  
       8  aqu080                  80     879.23114      40.28642     -88.49258     233.07798         8     sta4024n8846w         0         0         0         2           cha        39           tot       1.00000           aqu        49           rhg       1.00000  
       9  aqu090                  90    6735.70068      40.31912     -88.21048     224.56628         9     sta4033n8828w         0         0         0         2           cha         7           tot       1.00000           aqu        49           rhg       1.00000  
      10  aqu100                 100    4302.08097      40.30681     -88.38083     222.08592        10     sta4037n8833w         0         0         0         2           cha         8           tot       1.00000           aqu        49           rhg       1.00000  
      11  aqu110                 110    5076.26622      40.34113     -88.25099     222.84827        11     sta4033n8828w         0         0         0         2           cha         9           tot       1.00000           aqu        49           rhg       1.00000  
      12  aqu120                 120    6229.65803      40.25530     -88.30868     222.98661        12     sta4028n8829w         0         0         0         2           cha        10           tot       1.00000           aqu        49           rhg       1.00000  
      13  aqu130                 130    9515.91776      40.23516     -88.39313     225.60408        13     sta4020n8842w         0         0         0         2           cha        11           tot       1.00000           aqu        49           rhg       1.00000  
      14  aqu140                 140    6459.47763      40.18297     -88.51866     220.21890        14     sta4017n8854w         0         0         0         2           cha        40           tot       1.00000           aqu        49           rhg       1.00000  
      15  aqu150                 150    6767.33786      40.12644     -88.41324     216.36285        15     sta4009n8840w         0         0         0         2           cha        41           tot       1.00000           aqu        49           rhg       1.00000  
      16  aqu160                 160   12348.28589      40.14106     -88.49013     212.12789        16     sta4017n8854w         0         0         0         2           cha        12           tot       1.00000           aqu        49           rhg       1.00000  
      17  aqu170                 170   14016.43474      40.13999     -88.62175     214.98969        17     sta4009n8861w         0         0         0         2           cha        42           tot       1.00000           aqu        49           rhg       1.00000  
      18  aqu180                 180    7052.57957      40.04953     -88.50466     211.56108        18     sta4009n8840w         0         0         0         2           cha        13           tot       1.00000           aqu        49           rhg       1.00000  
      19  aqu190                 190     546.63932      40.03742     -88.57060     202.07946        19     sta4009n8861w         0         0         0         2           cha        14           tot       1.00000           aqu        49           rhg       1.00000  
      20  aqu200                 200    5128.78072      40.07668     -88.80640     213.52994        20     sta4005n8874w         0         0         0         2           cha        43           tot       1.00000           aqu        49           rhg       1.00000  
      21  aqu210                 210   11612.66031      40.10393     -88.73445     214.15141        21     sta4005n8874w         0         0         0         2           cha        15           tot       1.00000           aqu        49           rhg       1.00000  
      22  aqu220                 220   10527.70723      40.04168     -88.86454     212.92970        22     sta4001n8886w         0         0         0         2           cha        16           tot       1.00000           aqu        49           rhg       1.00000  
      23  aqu230                 230    5632.02563      39.95548     -88.64758     209.21209        23     sta3994n8867w         0         0         0         2           cha        17           tot       1.00000           aqu        49           rhg       1.00000  
      24  aqu240                 240    7481.33386      39.99709     -88.95321     211.35380        24     sta3996n8899w         0         0         0         2           cha        18           tot       1.00000           aqu        49           rhg       1.00000  
      25  aqu250                 250    6351.67627      39.99167     -88.77678     205.35548        25     sta3999n8874w         0         0         0         2           cha        19           tot       1.00000           aqu        49           rhg       1.00000  
      26  aqu260                 260   15290.50931      40.01076     -88.66428     206.52269        26     sta3998n8860w         0         0         0         2           cha        20           tot       1.00000           aqu        49           rhg       1.00000  
      27  aqu270                 270    9229.05320      39.91156     -88.78872     207.15536        27     sta3990n8876w         0         0         0         2           cha        21           tot       1.00000           aqu        49           rhg       1.00000  
      28  aqu280                 280    7252.68913      39.91699     -88.91603     205.95073        28     sta3990n8888w         0         0         0         2           cha        44           tot       1.00000           aqu        49           rhg       1.00000  
      29  aqu290                 290    7918.66730      39.87408     -89.11820     194.13520        29     sta3990n8908w         0         0         0         2           cha        22           tot       1.00000           aqu        49           rhg       1.00000  
      30  aqu300                 300    7910.92494      39.91135     -88.99123     204.95195        30     sta3996n8899w         0         0         0         2           cha        23           tot       1.00000           aqu        49           rhg       1.00000  
      31  aqu310                 310    1075.30048      39.83996     -88.97874     198.64516        31     sta3986n8902w         0         0         0         2           cha        24           tot       1.00000           aqu        49           rhg       1.00000  
      32  aqu320                 320    3628.05617      39.80497     -88.97327     207.43376        32     sta3978n8896w         0         0         0         2           cha        25           tot       1.00000           aqu        49           rhg       1.00000  
      33  aqu330                 330    1576.11112      39.85287     -89.02659     200.39784        33     sta3986n8902w         0         0         0         2           cha        26           tot       1.00000           aqu        49           rhg       1.00000  
      34  aqu340                 340    9110.22150      39.85168     -88.88515     200.88719        34     sta3987n8886w         0         0         0         2           res         1           tot       1.00000           aqu        49           rhg       1.00000  
      35  aqu350                 350   12552.07224      39.78140     -89.39172     175.11500        35     sta3983n8940w         0         0         0         2           cha        27           tot       1.00000           aqu        49           rhg       1.00000  
      36  aqu360                 360    8448.68083      39.86530     -89.22989     181.26922        36     sta3984n8924w         0         0         0         2           cha        28           tot       1.00000           aqu        49           rhg       1.00000  
      37  aqu370                 370    8107.18868      39.80876     -89.14191     184.66834        37     sta3982n8912w         0         0         0         2           cha        29           tot       1.00000           aqu        49           rhg       1.00000  
      38  aqu380                 380   14641.68944      39.83366     -89.39557     180.46728        38     sta3983n8940w         0         0         0         2           cha        30           tot       1.00000           aqu        49           rhg       1.00000  
      39  aqu390                 390    9711.82651      39.75784     -89.19994     183.24979        39     sta3984n8924w         0         0         0         2           cha        31           tot       1.00000           aqu        49           rhg       1.00000  
      40  aqu400                 400    5046.43785      39.83598     -88.81876     208.66744        40     sta3979n8882w         0         0         0         2           cha        45           tot       1.00000           aqu        49           rhg       1.00000  
      41  aqu410                 410    4983.07897      39.80952     -89.04897     198.54226        41     sta3977n8905w         0         0         0         2           cha        32           tot       1.00000           aqu        49           rhg       1.00000  
      42  aqu420                 420    4332.81375      39.76260     -88.94759     211.71107        42     sta3978n8896w         0         0         0         2           cha        46           tot       1.00000           aqu        49           rhg       1.00000  
      43  aqu430                 430    6940.84785      39.77395     -88.82002     212.54217        43     sta3979n8882w         0         0         0         2           cha        33           tot       1.00000           aqu        49           rhg       1.00000  
      44  aqu440                 440    8729.47660      39.72142     -89.39431     177.75954        44     sta3976n8944w         0         0         0         2           cha        34           tot       1.00000           aqu        49           rhg       1.00000  
      45  aqu450                 450   11673.80466      39.72234     -89.08922     193.41506        45     sta3977n8905w         0         0         0         2           cha        35           tot       1.00000           aqu        49           rhg       1.00000  
      46  aqu460                 460    6983.02512      39.70856     -89.25168     184.55186        46     sta3977n8932w         0         0         0         2           cha        36           tot       1.00000           aqu        49           rhg       1.00000  
      47  aqu470                 470    6100.69196      39.71978     -88.89939     212.93438        47     sta3978n8896w         0         0         0         2           cha        47           tot       1.00000           aqu        49           rhg       1.00000  
      48  aqu480                 480    9548.40017      39.65850     -89.24431     184.21057        48     sta3977n8932w         0         0         0         2           cha        37           tot       1.00000           aqu        49           rhg       1.00000  
      49  aqu_deep35              35  368060.43079      39.78140     -89.39172     175.11500        49     sta3983n8940w         0         0         0         0  
