hru.con: written by SWAT+ editor v1.2.3 on 2020-11-06 08:15
      id  name                gis_id          area           lat           lon          elev       hru               wst       cst      ovfl      rule   out_tot  
       1  hru0001                  1     417.91759      40.43960     -88.60409     262.42806         1     sta4043n8850w         0         0         0         0  
       2  hru0002                  2     602.78020      40.43732     -88.62229     261.75970         2     sta4046n8872w         0         0         0         0  
       3  hru0003                  3     868.47802      40.43727     -88.62218     261.75823         3     sta4046n8872w         0         0         0         0  
       4  hru0004                  4     603.57532      40.43936     -88.60425     262.40048         4     sta4043n8850w         0         0         0         0  
       5  hru0005                  5     467.07812      40.44162     -88.60360     262.24522         5     sta4043n8850w         0         0         0         0  
       6  hru0006                  6     798.44353      40.44080     -88.61940     261.63472         6     sta4046n8872w         0         0         0         0  
       7  hru0007                  7     261.07333      40.44182     -88.60371     262.21313         7     sta4043n8850w         0         0         0         0  
       8  hru0008                  8     445.37667      40.44072     -88.61923     261.55923         8     sta4046n8872w         0         0         0         0  
       9  hru0009                  9     731.50248      40.44217     -88.64000     260.66736         9     sta4046n8872w         0         0         0         0  
      10  hru0010                 10     151.48235      40.44073     -88.62783     261.56619        10     sta4046n8872w         0         0         0         0  
      11  hru0011                 11     255.69963      40.43085     -88.69674     264.38079        11     sta4046n8872w         0         0         0         0  
      12  hru0012                 12      86.84601      40.44024     -88.62800     261.60814        12     sta4046n8872w         0         0         0         0  
      13  hru0013                 13     409.47516      40.44225     -88.63993     260.69369        13     sta4046n8872w         0         0         0         0  
      14  hru0014                 14     122.66472      40.43077     -88.69689     264.44627        14     sta4046n8872w         0         0         0         0  
      15  hru0015                 15      22.38042      40.43101     -88.69587     265.84576        15     sta4046n8872w         0         0         0         0  
      16  hru0016                 16     197.04203      40.43847     -88.63348     261.73020        16     sta4046n8872w         0         0         0         0  
      17  hru0017                 17     977.18244      40.43978     -88.64317     260.34054        17     sta4046n8872w         0         0         0         0  
      18  hru0018                 18     273.06310      40.43148     -88.69470     264.26790        18     sta4046n8872w         0         0         0         0  
      19  hru0019                 19      53.47738      40.43054     -88.69346     265.22600        19     sta4046n8872w         0         0         0         0  
      20  hru0020                 20     546.94282      40.43976     -88.64371     260.35132        20     sta4046n8872w         0         0         0         0  
      21  hru0021                 21     110.14465      40.43863     -88.63282     261.81404        21     sta4046n8872w         0         0         0         0  
      22  hru0022                 22     153.82599      40.43137     -88.69455     264.24724        22     sta4046n8872w         0         0         0         0  
      23  hru0023                 23      28.74408      40.43057     -88.69350     265.22329        23     sta4046n8872w         0         0         0         0  
      24  hru0024                 24      63.97503      40.45304     -88.51165     255.61293        24     sta4043n8850w         0         0         0         0  
      25  hru0025                 25     280.05999      40.45324     -88.51546     252.06236        25     sta4043n8850w         0         0         0         0  
      26  hru0026                 26     530.30773      40.40140     -88.46286     227.29846        26     sta4043n8850w         0         0         0         0  
      27  hru0027                 27     408.21731      40.39573     -88.40190     222.04360        27     sta4037n8833w         0         0         0         0  
      28  hru0028                 28      34.80724      40.45311     -88.51184     255.52964        28     sta4043n8850w         0         0         0         0  
      29  hru0029                 29     158.70154      40.45327     -88.51576     252.09229        29     sta4043n8850w         0         0         0         0  
      30  hru0030                 30     299.60627      40.40132     -88.46311     227.32076        30     sta4043n8850w         0         0         0         0  
      31  hru0031                 31     233.53571      40.39561     -88.40189     222.03954        31     sta4037n8833w         0         0         0         0  
      32  hru0032                 32     394.76434      40.44939     -88.51306     259.01943        32     sta4043n8850w         0         0         0         0  
      33  hru0033                 33     356.04452      40.45264     -88.51008     257.75765        33     sta4043n8850w         0         0         0         0  
      34  hru0034                 34     274.01909      40.44955     -88.51274     259.10270        34     sta4043n8850w         0         0         0         0  
      35  hru0035                 35     247.23571      40.45260     -88.51017     257.71370        35     sta4043n8850w         0         0         0         0  
      36  hru0036                 36      47.30265      40.45578     -88.51242     259.71671        36     sta4043n8850w         0         0         0         0  
      37  hru0037                 37      44.77827      40.45486     -88.51087     257.08799        37     sta4043n8850w         0         0         0         0  
      38  hru0038                 38      46.96056      40.45504     -88.51460     252.80985        38     sta4043n8850w         0         0         0         0  
      39  hru0039                 39      71.46121      40.42771     -88.52548     244.90228        39     sta4043n8850w         0         0         0         0  
      40  hru0040                 40      40.03621      40.42794     -88.52538     244.79847        40     sta4043n8850w         0         0         0         0  
      41  hru0041                 41      44.03511      40.42606     -88.52614     240.19234        41     sta4043n8850w         0         0         0         0  
      42  hru0042                 42     136.37141      40.39875     -88.46271     227.23829        42     sta4043n8850w         0         0         0         0  
      43  hru0043                 43      32.32566      40.40104     -88.47582     229.99717        43     sta4043n8850w         0         0         0         0  
      44  hru0044                 44      63.59679      40.45255     -88.51001     256.09792        44     sta4043n8850w         0         0         0         0  
      45  hru0045                 45     258.58666      40.45474     -88.51149     253.31249        45     sta4043n8850w         0         0         0         0  
      46  hru0046                 46     761.20209      40.40001     -88.46659     227.58178        46     sta4043n8850w         0         0         0         0  
      47  hru0047                 47     323.34194      40.39555     -88.39741     222.08591        47     sta4037n8833w         0         0         0         0  
      48  hru0048                 48     135.24893      40.45147     -88.51153     259.34384        48     sta4043n8850w         0         0         0         0  
      49  hru0049                 49     161.37122      40.45214     -88.50921     257.33052        49     sta4043n8850w         0         0         0         0  
      50  hru0050                 50      61.18214      40.40787     -88.48346     232.23539        50     sta4043n8850w         0         0         0         0  
      51  hru0051                 51      25.54370      40.40916     -88.48856     233.42958        51     sta4043n8850w         0         0         0         0  
      52  hru0052                 52      19.39586      40.40407     -88.47841     229.71358        52     sta4043n8850w         0         0         0         0  
      53  hru0053                 53     289.36759      40.45213     -88.50936     257.20204        53     sta4043n8850w         0         0         0         0  
      54  hru0054                 54     242.87555      40.45148     -88.51133     259.44140        54     sta4043n8850w         0         0         0         0  
      55  hru0055                 55      45.40262      40.40969     -88.48942     233.57456        55     sta4043n8850w         0         0         0         0  
      56  hru0056                 56     108.85205      40.40790     -88.48335     232.27697        56     sta4043n8850w         0         0         0         0  
      57  hru0057                 57      34.83477      40.40429     -88.47744     229.68539        57     sta4043n8850w         0         0         0         0  
      58  hru0058                 58      36.00363      40.45265     -88.51015     256.02048        58     sta4043n8850w         0         0         0         0  
      59  hru0059                 59     145.51980      40.45474     -88.51131     253.45866        59     sta4043n8850w         0         0         0         0  
      60  hru0060                 60     432.72530      40.39998     -88.46682     227.60873        60     sta4043n8850w         0         0         0         0  
      61  hru0061                 61     180.55864      40.39539     -88.39733     222.07362        61     sta4037n8833w         0         0         0         0  
      62  hru0062                 62     545.76748      40.38515     -88.44262     224.44255        62     sta4043n8850w         0         0         0         0  
      63  hru0063                 63     149.73395      40.37769     -88.42137     223.10486        63     sta4043n8850w         0         0         0         0  
      64  hru0064                 64     310.40941      40.38512     -88.44292     224.46347        64     sta4043n8850w         0         0         0         0  
      65  hru0065                 65      84.95498      40.37784     -88.42105     223.05912        65     sta4037n8833w         0         0         0         0  
      66  hru0066                 66     243.37543      40.52078     -88.37509     246.59487        66     sta4047n8830w         0         0         0         0  
      67  hru0067                 67     119.08298      40.53436     -88.37277     250.35603        67     sta4047n8830w         0         0         0         0  
      68  hru0068                 68     358.31700      40.48871     -88.43454     244.94295        68     sta4054n8850w         0         0         0         0  
      69  hru0069                 69      84.17319      40.48559     -88.43798     246.44004        69     sta4054n8850w         0         0         0         0  
      70  hru0070                 70    1062.13250      40.44098     -88.41159     226.45765        70     sta4043n8850w         0         0         0         0  
      71  hru0071                 71     433.03284      40.52036     -88.37529     246.50492        71     sta4047n8830w         0         0         0         0  
      72  hru0072                 72     212.41560      40.53376     -88.37299     250.21659        72     sta4047n8830w         0         0         0         0  
      73  hru0073                 73     640.32917      40.48857     -88.43496     245.01364        73     sta4054n8850w         0         0         0         0  
      74  hru0074                 74     149.36860      40.48589     -88.43774     246.43904        74     sta4054n8850w         0         0         0         0  
      75  hru0075                 75    1896.23832      40.44091     -88.41171     226.45389        75     sta4043n8850w         0         0         0         0  
      76  hru0076                 76     946.15222      40.49319     -88.43821     247.22360        76     sta4054n8850w         0         0         0         0  
      77  hru0077                 77     228.69129      40.48912     -88.43997     248.37654        77     sta4054n8850w         0         0         0         0  
      78  hru0078                 78    2629.95361      40.43583     -88.41292     225.69466        78     sta4043n8850w         0         0         0         0  
      79  hru0079                 79     532.63102      40.49313     -88.43830     247.24214        79     sta4054n8850w         0         0         0         0  
      80  hru0080                 80     130.11979      40.48925     -88.44040     248.57840        80     sta4054n8850w         0         0         0         0  
      81  hru0081                 81    1478.86189      40.43578     -88.41307     225.71170        81     sta4043n8850w         0         0         0         0  
      82  hru0082                 82     360.78114      40.48165     -88.44443     247.97201        82     sta4054n8850w         0         0         0         0  
      83  hru0083                 83     263.42234      40.47582     -88.45231     250.79863        83     sta4043n8850w         0         0         0         0  
      84  hru0084                 84      41.07962      40.44750     -88.40791     227.49894        84     sta4043n8850w         0         0         0         0  
      85  hru0085                 85      75.75193      40.44961     -88.41811     229.66109        85     sta4043n8850w         0         0         0         0  
      86  hru0086                 86      53.28264      40.44633     -88.40848     226.49959        86     sta4043n8850w         0         0         0         0  
      87  hru0087                 87     813.44179      40.48693     -88.44151     248.36595        87     sta4054n8850w         0         0         0         0  
      88  hru0088                 88     528.31277      40.47902     -88.44893     250.81114        88     sta4054n8850w         0         0         0         0  
      89  hru0089                 89      71.65381      40.47994     -88.44453     248.16552        89     sta4054n8850w         0         0         0         0  
      90  hru0090                 90      61.12063      40.47408     -88.45008     250.69491        90     sta4043n8850w         0         0         0         0  
      91  hru0091                 91      84.52379      40.48270     -88.44239     246.39303        91     sta4054n8850w         0         0         0         0  
      92  hru0092                 92      56.40008      40.48524     -88.37249     235.41287        92     sta4047n8830w         0         0         0         0  
      93  hru0093                 93     113.81002      40.48350     -88.37359     233.48411        93     sta4047n8830w         0         0         0         0  
      94  hru0094                 94      37.10686      40.48440     -88.37142     235.91108        94     sta4047n8830w         0         0         0         0  
      95  hru0095                 95     357.57625      40.44360     -88.40706     225.91441        95     sta4043n8850w         0         0         0         0  
      96  hru0096                 96      43.82635      40.48216     -88.44401     250.11705        96     sta4054n8850w         0         0         0         0  
      97  hru0097                 97      61.10505      40.49106     -88.43574     247.28830        97     sta4054n8850w         0         0         0         0  
      98  hru0098                 98      46.33304      40.48764     -88.43671     247.82738        98     sta4054n8850w         0         0         0         0  
      99  hru0099                 99      40.65509      40.48081     -88.37135     234.88070        99     sta4047n8830w         0         0         0         0  
     100  hru0100                100     103.99868      40.47828     -88.37172     232.77040       100     sta4047n8830w         0         0         0         0  
     101  hru0101                101      53.95806      40.47668     -88.37078     233.37014       101     sta4047n8830w         0         0         0         0  
     102  hru0102                102     382.49181      40.45343     -88.39183     225.96661       102     sta4047n8830w         0         0         0         0  
     103  hru0103                103      94.42142      40.45425     -88.39168     226.88090       103     sta4047n8830w         0         0         0         0  
     104  hru0104                104     202.93939      40.48165     -88.44443     247.97201       104     sta4054n8850w         0         0         0         0  
     105  hru0105                105     148.17507      40.47582     -88.45231     250.79863       105     sta4043n8850w         0         0         0         0  
     106  hru0106                106      23.10729      40.44750     -88.40791     227.49894       106     sta4043n8850w         0         0         0         0  
     107  hru0107                107      42.61046      40.44961     -88.41811     229.66109       107     sta4043n8850w         0         0         0         0  
     108  hru0108                108      29.97149      40.44633     -88.40848     226.49959       108     sta4043n8850w         0         0         0         0  
     109  hru0109                109    1184.95405      40.45975     -88.32514     235.97487       109     sta4047n8830w         0         0         0         0  
     110  hru0110                110     493.15952      40.46076     -88.32362     237.53347       110     sta4047n8830w         0         0         0         0  
     111  hru0111                111     207.30206      40.43806     -88.29089     237.54522       111     sta4047n8830w         0         0         0         0  
     112  hru0112                112     485.68065      40.43501     -88.29717     234.95151       112     sta4047n8830w         0         0         0         0  
     113  hru0113                113     667.40604      40.45962     -88.32533     235.91352       113     sta4047n8830w         0         0         0         0  
     114  hru0114                114     272.90649      40.46075     -88.32370     237.50487       114     sta4047n8830w         0         0         0         0  
     115  hru0115                115     276.17659      40.43526     -88.29742     234.95644       115     sta4047n8830w         0         0         0         0  
     116  hru0116                116     115.86958      40.43848     -88.29089     237.70702       116     sta4047n8830w         0         0         0         0  
     117  hru0117                117    1074.15476      40.45705     -88.32383     235.37170       117     sta4047n8830w         0         0         0         0  
     118  hru0118                118     424.01901      40.45866     -88.32204     237.15703       118     sta4047n8830w         0         0         0         0  
     119  hru0119                119     140.14135      40.42766     -88.28150     235.95547       119     sta4047n8830w         0         0         0         0  
     120  hru0120                120     329.75449      40.42701     -88.28547     233.33741       120     sta4047n8830w         0         0         0         0  
     121  hru0121                121     377.92833      40.40377     -88.32806     220.45953       121     sta4037n8833w         0         0         0         0  
     122  hru0122                122     607.86165      40.45698     -88.32380     235.35931       122     sta4047n8830w         0         0         0         0  
     123  hru0123                123     236.72704      40.45853     -88.32213     237.10890       123     sta4047n8830w         0         0         0         0  
     124  hru0124                124      78.53429      40.42762     -88.28113     236.01365       124     sta4047n8830w         0         0         0         0  
     125  hru0125                125     187.23064      40.42692     -88.28519     233.40769       125     sta4047n8830w         0         0         0         0  
     126  hru0126                126     213.35701      40.40383     -88.32803     220.46768       126     sta4037n8833w         0         0         0         0  
     127  hru0127                127     397.05833      40.34942     -88.51902     235.27617       127     sta4043n8850w         0         0         0         0  
     128  hru0128                128     836.53503      40.34990     -88.51275     231.85231       128     sta4043n8850w         0         0         0         0  
     129  hru0129                129    2495.24247      40.32883     -88.46568     225.96300       129     sta4024n8846w         0         0         0         0  
     130  hru0130                130     272.42100      40.35767     -88.51987     235.18159       130     sta4043n8850w         0         0         0         0  
     131  hru0131                131     634.71285      40.35927     -88.51394     231.65487       131     sta4043n8850w         0         0         0         0  
     132  hru0132                132    2492.69550      40.32601     -88.46271     226.01436       132     sta4024n8846w         0         0         0         0  
     133  hru0133                133     357.92649      40.35924     -88.51404     231.68722       133     sta4043n8850w         0         0         0         0  
     134  hru0134                134     153.80829      40.35782     -88.51996     235.24858       134     sta4043n8850w         0         0         0         0  
     135  hru0135                135    1394.97849      40.32589     -88.46263     226.01672       135     sta4024n8846w         0         0         0         0  
     136  hru0136                136     220.11594      40.34965     -88.51894     235.26855       136     sta4043n8850w         0         0         0         0  
     137  hru0137                137     472.10118      40.34979     -88.51275     231.83658       137     sta4043n8850w         0         0         0         0  
     138  hru0138                138    1407.57417      40.32865     -88.46576     225.97463       138     sta4024n8846w         0         0         0         0  
     139  hru0139                139      99.46392      40.35157     -88.51786     234.16197       139     sta4043n8850w         0         0         0         0  
     140  hru0140                140      48.08072      40.35073     -88.52082     236.06712       140     sta4043n8850w         0         0         0         0  
     141  hru0141                141     373.79166      40.32686     -88.46314     225.95380       141     sta4024n8846w         0         0         0         0  
     142  hru0142                142      76.74141      40.35968     -88.41789     222.61729       142     sta4037n8833w         0         0         0         0  
     143  hru0143                143      20.73207      40.36119     -88.41989     223.30603       143     sta4037n8833w         0         0         0         0  
     144  hru0144                144     237.67851      40.37742     -88.26763     223.60423       144     sta4033n8828w         0         0         0         0  
     145  hru0145                145      83.88075      40.39081     -88.24835     230.47312       145     sta4033n8828w         0         0         0         0  
     146  hru0146                146     103.19648      40.40174     -88.23431     235.23980       146     sta4033n8828w         0         0         0         0  
     147  hru0147                147      79.23459      40.40287     -88.23372     238.04761       147     sta4033n8828w         0         0         0         0  
     148  hru0148                148     230.06214      40.38214     -88.28752     218.57569       148     sta4037n8833w         0         0         0         0  
     149  hru0149                149     425.47200      40.37710     -88.26781     223.57778       149     sta4033n8828w         0         0         0         0  
     150  hru0150                150     149.36248      40.39081     -88.24838     230.37011       150     sta4033n8828w         0         0         0         0  
     151  hru0151                151     137.58655      40.40279     -88.23375     237.91173       151     sta4033n8828w         0         0         0         0  
     152  hru0152                152     182.64292      40.40177     -88.23429     235.23371       152     sta4033n8828w         0         0         0         0  
     153  hru0153                153     403.16195      40.38205     -88.28729     218.55648       153     sta4037n8833w         0         0         0         0  
     154  hru0154                154     141.88904      40.39095     -88.24682     229.43370       154     sta4033n8828w         0         0         0         0  
     155  hru0155                155     372.50258      40.37943     -88.25782     223.74599       155     sta4033n8828w         0         0         0         0  
     156  hru0156                156     154.92019      40.40177     -88.23382     238.02208       156     sta4033n8828w         0         0         0         0  
     157  hru0157                157     212.46696      40.40070     -88.23525     236.08964       157     sta4033n8828w         0         0         0         0  
     158  hru0158                158     486.42055      40.37907     -88.28140     218.59627       158     sta4037n8833w         0         0         0         0  
     159  hru0159                159      80.72055      40.39073     -88.24623     229.32335       159     sta4033n8828w         0         0         0         0  
     160  hru0160                160     209.08056      40.37934     -88.25789     223.72753       160     sta4033n8828w         0         0         0         0  
     161  hru0161                161      86.59689      40.40182     -88.23422     238.03131       161     sta4033n8828w         0         0         0         0  
     162  hru0162                162     121.98655      40.40085     -88.23559     236.05510       162     sta4033n8828w         0         0         0         0  
     163  hru0163                163     274.65572      40.37906     -88.28137     218.59440       163     sta4037n8833w         0         0         0         0  
     164  hru0164                164     140.60332      40.37266     -88.28020     219.36171       164     sta4033n8828w         0         0         0         0  
     165  hru0165                165      30.28973      40.38018     -88.26685     223.32097       165     sta4033n8828w         0         0         0         0  
     166  hru0166                166     511.17568      40.38108     -88.29216     218.21781       166     sta4037n8833w         0         0         0         0  
     167  hru0167                167      79.77354      40.37322     -88.28022     219.36317       167     sta4033n8828w         0         0         0         0  
     168  hru0168                168      17.08598      40.38095     -88.26493     223.75034       168     sta4033n8828w         0         0         0         0  
     169  hru0169                169     290.84067      40.38102     -88.29215     218.21152       169     sta4037n8833w         0         0         0         0  
     170  hru0170                170     361.67172      40.35502     -88.33735     217.85037       170     sta4037n8833w         0         0         0         0  
     171  hru0171                171      76.77626      40.35047     -88.33541     217.64075       171     sta4037n8833w         0         0         0         0  
     172  hru0172                172     283.17489      40.33707     -88.34624     220.70400       172     sta4037n8833w         0         0         0         0  
     173  hru0173                173     436.38576      40.34448     -88.36222     220.64525       173     sta4037n8833w         0         0         0         0  
     174  hru0174                174      45.04993      40.35035     -88.33537     217.60655       174     sta4037n8833w         0         0         0         0  
     175  hru0175                175     199.00622      40.35487     -88.33717     217.83631       175     sta4037n8833w         0         0         0         0  
     176  hru0176                176     158.68889      40.33697     -88.34599     220.67855       176     sta4037n8833w         0         0         0         0  
     177  hru0177                177     243.85759      40.34443     -88.36223     220.66197       177     sta4037n8833w         0         0         0         0  
     178  hru0178                178     248.31312      40.35529     -88.33693     217.57585       178     sta4037n8833w         0         0         0         0  
     179  hru0179                179      49.92005      40.35217     -88.33409     217.43554       179     sta4037n8833w         0         0         0         0  
     180  hru0180                180     115.34356      40.33665     -88.33202     219.56096       180     sta4037n8833w         0         0         0         0  
     181  hru0181                181     256.66877      40.34434     -88.35738     220.45811       181     sta4037n8833w         0         0         0         0  