hyd-sed-lte.cha: written by SWAT+ editor v1.2.3 on 2020-10-30 18:16
name                wd            dp           slp           len          mann             k           wdr     alpha_bnk          side
hydcha01      18.64063       0.77124       0.00136       7.91252       0.05500       1.00000       24.1700       0.23000       0.00000
hydcha02      39.01657       1.26197       0.00087      22.05510       0.05500       1.00000       30.9170       0.23000       0.00000
hydcha03      26.41991       0.97313       0.00069      13.11186       0.05500       1.00000       27.1490       0.23000       0.00000
hydcha04      23.51899       0.90053       0.00037      25.43513       0.05500       1.00000       26.1170       0.23000       0.00000
hydcha05      13.87586       0.63347       0.00123       3.64011       0.05500       1.00000       21.9050       0.23000       0.00000
hydcha06      60.79225       1.69609       0.00028      19.61209       0.05500       1.00000       35.8430       0.23000       0.00000
hydcha07      16.12944       0.70032       0.00041       9.92916       0.05500       1.00000       23.0320       0.23000       0.00000
hydcha08      63.30985       1.74260       0.00013       6.77228       0.05500       1.00000       36.3310       0.23000       0.00000
hydcha09      13.61182       0.62540       0.00067      11.22319       0.05500       1.00000       21.7650       0.23000       0.00000
hydcha10      23.89244       0.91003       0.00068      15.25127       0.05500       1.00000       26.2550       0.23000       0.00000
hydcha11      78.09826       2.00437       0.00031      19.17223       0.05500       1.00000       38.9640       0.23000       0.00000
hydcha12      87.19131       2.15708       0.00030      38.22924       0.05500       1.00000       40.4210       0.23000       0.00000
hydcha13      24.82521       0.93357       0.00089      23.53237       0.05500       1.00000       26.5920       0.23000       0.00000
hydcha14      99.82971       2.36079       0.00017       3.40276       0.05500       1.00000       42.2870       0.23000       0.00000
hydcha15      22.36396       0.87080       0.00098       8.89228       0.05500       1.00000       25.6820       0.23000       0.00000
hydcha16      21.08580       0.83729       0.00128      21.49745       0.05500       1.00000       25.1830       0.23000       0.00000
hydcha17      14.48733       0.65194       0.00114       6.46666       0.05500       1.00000       22.2220       0.23000       0.00000
hydcha18      17.17818       0.73036       0.00094       9.70132       0.05500       1.00000       23.5200       0.23000       0.00000
hydcha19      42.32088       1.33225       0.00066      17.72885       0.05500       1.00000       31.7660       0.23000       0.00000
hydcha20     108.49861       2.49555       0.00016      27.94175       0.05500       1.00000       43.4770       0.23000       0.00000
hydcha21     124.95677       2.74193       0.00015       9.07597       0.05500       1.00000       45.5730       0.23000       0.00000
hydcha22      17.77383       0.74714       0.00158       4.72219       0.05500       1.00000       23.7890       0.23000       0.00000
hydcha23      33.38662       1.13745       0.00085      21.41939       0.05500       1.00000       29.3520       0.23000       0.00000
hydcha24     137.81728       2.92698       0.00015       3.12537       0.05500       1.00000       47.0850       0.23000       0.00000
hydcha25     137.44730       2.92174       0.00063       2.34258       0.05500       1.00000       47.0430       0.23000       0.00000
hydcha26     145.98345       3.04149       0.00020       4.62378       0.05500       1.00000       47.9970       0.23000       0.00000
hydcha28     177.88576       3.46985       0.00034      36.54379       0.05500       1.00000       51.2660       0.23000       0.00000
hydcha29      27.47747       0.99893       0.00061       8.45452       0.05500       1.00000       27.5070       0.23000       0.00000
hydcha30     155.52247       3.17258       0.00036      17.06977       0.05500       1.00000       49.0210       0.23000       0.00000
hydcha31      25.70067       0.95539       0.00060       8.42998       0.05500       1.00000       26.9010       0.23000       0.00000
hydcha32      32.25990       1.11171       0.00052      28.22698       0.05500       1.00000       29.0180       0.23000       0.00000
hydcha33     147.62582       3.06426       0.00033      12.46988       0.05500       1.00000       48.1770       0.23000       0.00000
hydcha34      16.42242       0.70877       0.00133      10.18789       0.05500       1.00000       23.1700       0.23000       0.00000
hydcha35      35.64996       1.18829       0.00040      26.50612       0.05500       1.00000       30.0010       0.23000       0.00000
hydcha36      22.43454       0.87263       0.00115      13.89839       0.05500       1.00000       25.7090       0.23000       0.00000
hydcha37      16.48223       0.71049       0.00081       9.95989       0.05500       1.00000       23.1980       0.23000       0.00000
hydcha38      19.88603       0.80522       0.00068      19.45661       0.05500       1.00000       24.6960       0.23000       0.00000
hydcha39      17.02361       0.72597       0.00083       4.29515       0.05500       1.00000       23.4490       0.23000       0.00000
hydcha40       4.75392       0.31016       0.00130       1.93549       0.05500       1.00000       15.3270       0.23000       0.00000
hydcha41      15.72925       0.68869       0.00182       1.97121       0.05500       1.00000       22.8390       0.23000       0.00000
hydcha42      16.17486       0.70163       0.00079       0.72418       0.05500       1.00000       23.0530       0.23000       0.00000
hydcha43      25.03642       0.93885       0.00115       3.36860       0.05500       1.00000       26.6670       0.23000       0.00000
hydcha44      13.69614       0.62798       0.00090       6.71135       0.05500       1.00000       21.8100       0.23000       0.00000
hydcha45      16.86123       0.72134       0.00141       8.14128       0.05500       1.00000       23.3750       0.23000       0.00000
hydcha46      13.56378       0.62393       0.00094       1.26595       0.05500       1.00000       21.7390       0.23000       0.00000
hydcha47      12.37804       0.58702       0.00061       3.31556       0.05500       1.00000       21.0860       0.23000       0.00000
hydcha48      15.19908       0.67312       0.00128      17.97409       0.05500       1.00000       22.5800       0.23000       0.00000
