hydrology.wet: written by SWAT+ editor v1.2.3 on 2020-11-02 07:04
name                    hru_ps         dp_ps        hru_es         dp_es             k          evap   vol_area_co      vol_dp_a      vol_dp_b      hru_frac  
hydwet0863             0.10000      20.00000       0.25000     100.00000       0.01000       0.70000       1.00000       1.00000       1.00000       0.50000  
