reservoir.con: written by SWAT+ editor v1.2.3 on 2020-11-02 07:04
      id  name                gis_id          area           lat           lon          elev       res               wst       cst      ovfl      rule   out_tot       obj_typ    obj_id       hyd_typ          frac  
       1  res4                     4    1744.27475      39.85028     -88.89458     188.02632         1     sta3987n8886w         0         0         0         1           cha        25           tot       1.00000  
