rout_unit.ele: written by SWAT+ editor v1.2.3 on 2020-11-02 07:04
      id  name                   obj_typ    obj_id          frac               dlr  
       1  hru0001                    hru         1     4.8750E-2                 0  
       2  hru0002                    hru         2     7.0314E-2                 0  
       3  hru0003                    hru         3     1.0131E-1                 0  
       4  hru0004                    hru         4     7.0407E-2                 0  
       5  hru0005                    hru         5     5.4484E-2                 0  
       6  hru0006                    hru         6     9.3138E-2                 0  
       7  hru0007                    hru         7     3.0454E-2                 0  
       8  hru0008                    hru         8     5.1953E-2                 0  
       9  hru0009                    hru         9     8.5329E-2                 0  
      10  hru0010                    hru        10     1.7670E-2                 0  
      11  hru0011                    hru        11     2.9827E-2                 0  
      12  hru0012                    hru        12     1.0131E-2                 0  
      13  hru0013                    hru        13     4.7765E-2                 0  
      14  hru0014                    hru        14     1.4309E-2                 0  
      15  hru0015                    hru        15     2.6107E-3                 0  
      16  hru0016                    hru        16     2.2985E-2                 0  
      17  hru0017                    hru        17     1.1399E-1                 0  
      18  hru0018                    hru        18     3.1853E-2                 0  
      19  hru0019                    hru        19     6.2381E-3                 0  
      20  hru0020                    hru        20     6.3800E-2                 0  
      21  hru0021                    hru        21     1.2848E-2                 0  
      22  hru0022                    hru        22     1.7944E-2                 0  
      23  hru0023                    hru        23     3.3530E-3                 0  
      24  hru0024                    hru        24     7.8415E-3                 0  
      25  hru0025                    hru        25     3.4327E-2                 0  
      26  hru0026                    hru        26     6.5000E-2                 0  
      27  hru0027                    hru        27     5.0035E-2                 0  
      28  hru0028                    hru        28     4.2663E-3                 0  
      29  hru0029                    hru        29     1.9452E-2                 0  
      30  hru0030                    hru        30     3.6723E-2                 0  
      31  hru0031                    hru        31     2.8625E-2                 0  
      32  hru0032                    hru        32     4.8387E-2                 0  
      33  hru0033                    hru        33     4.3641E-2                 0  
      34  hru0034                    hru        34     3.3587E-2                 0  
      35  hru0035                    hru        35     3.0304E-2                 0  
      36  hru0036                    hru        36     5.7979E-3                 0  
      37  hru0037                    hru        37     5.4885E-3                 0  
      38  hru0038                    hru        38     5.7560E-3                 0  
      39  hru0039                    hru        39     8.7590E-3                 0  
      40  hru0040                    hru        40     4.9073E-3                 0  
      41  hru0041                    hru        41     5.3974E-3                 0  
      42  hru0042                    hru        42     1.6715E-2                 0  
      43  hru0043                    hru        43     3.9622E-3                 0  
      44  hru0044                    hru        44     7.7951E-3                 0  
      45  hru0045                    hru        45     3.1695E-2                 0  
      46  hru0046                    hru        46     9.3301E-2                 0  
      47  hru0047                    hru        47     3.9632E-2                 0  
      48  hru0048                    hru        48     1.6578E-2                 0  
      49  hru0049                    hru        49     1.9779E-2                 0  
      50  hru0050                    hru        50     7.4991E-3                 0  
      51  hru0051                    hru        51     3.1309E-3                 0  
      52  hru0052                    hru        52     2.3774E-3                 0  
      53  hru0053                    hru        53     3.5468E-2                 0  
      54  hru0054                    hru        54     2.9769E-2                 0  
      55  hru0055                    hru        55     5.5650E-3                 0  
      56  hru0056                    hru        56     1.3342E-2                 0  
      57  hru0057                    hru        57     4.2697E-3                 0  
      58  hru0058                    hru        58     4.4130E-3                 0  
      59  hru0059                    hru        59     1.7836E-2                 0  
      60  hru0060                    hru        60     5.3039E-2                 0  
      61  hru0061                    hru        61     2.2131E-2                 0  
      62  hru0062                    hru        62     6.6895E-2                 0  
      63  hru0063                    hru        63     1.8353E-2                 0  
      64  hru0064                    hru        64     3.8047E-2                 0  
      65  hru0065                    hru        65     1.0413E-2                 0  
      66  hru0066                    hru        66     1.5875E-2                 0  
      67  hru0067                    hru        67     7.7675E-3                 0  
      68  hru0068                    hru        68     2.3372E-2                 0  
      69  hru0069                    hru        69     5.4904E-3                 0  
      70  hru0070                    hru        70     6.9280E-2                 0  
      71  hru0071                    hru        71     2.8246E-2                 0  
      72  hru0072                    hru        72     1.3855E-2                 0  
      73  hru0073                    hru        73     4.1767E-2                 0  
      74  hru0074                    hru        74     9.7429E-3                 0  
      75  hru0075                    hru        75     1.2369E-1                 0  
      76  hru0076                    hru        76     6.1715E-2                 0  
      77  hru0077                    hru        77     1.4917E-2                 0  
      78  hru0078                    hru        78     1.7155E-1                 0  
      79  hru0079                    hru        79     3.4742E-2                 0  
      80  hru0080                    hru        80     8.4874E-3                 0  
      81  hru0081                    hru        81     9.6462E-2                 0  
      82  hru0082                    hru        82     2.3533E-2                 0  
      83  hru0083                    hru        83     1.7182E-2                 0  
      84  hru0084                    hru        84     2.6795E-3                 0  
      85  hru0085                    hru        85     4.9411E-3                 0  
      86  hru0086                    hru        86     3.4755E-3                 0  
      87  hru0087                    hru        87     5.3059E-2                 0  
      88  hru0088                    hru        88     3.4461E-2                 0  
      89  hru0089                    hru        89     4.6738E-3                 0  
      90  hru0090                    hru        90     3.9867E-3                 0  
      91  hru0091                    hru        91     5.5133E-3                 0  
      92  hru0092                    hru        92     3.6788E-3                 0  
      93  hru0093                    hru        93     7.4235E-3                 0  
      94  hru0094                    hru        94     2.4204E-3                 0  
      95  hru0095                    hru        95     2.3324E-2                 0  
      96  hru0096                    hru        96     2.8587E-3                 0  
      97  hru0097                    hru        97     3.9857E-3                 0  
      98  hru0098                    hru        98     3.0222E-3                 0  
      99  hru0099                    hru        99     2.6518E-3                 0  
     100  hru0100                    hru       100     6.7836E-3                 0  
     101  hru0101                    hru       101     3.5195E-3                 0  
     102  hru0102                    hru       102     2.4949E-2                 0  
     103  hru0103                    hru       103     6.1589E-3                 0  
     104  hru0104                    hru       104     1.3237E-2                 0  
     105  hru0105                    hru       105     9.6651E-3                 0  
     106  hru0106                    hru       106     1.5072E-3                 0  
     107  hru0107                    hru       107     2.7794E-3                 0  
     108  hru0108                    hru       108     1.9550E-3                 0  
     109  hru0109                    hru       109     1.6079E-1                 0  
     110  hru0110                    hru       110     6.6919E-2                 0  
     111  hru0111                    hru       111     2.8130E-2                 0  
     112  hru0112                    hru       112     6.5904E-2                 0  
     113  hru0113                    hru       113     9.0564E-2                 0  
     114  hru0114                    hru       114     3.7032E-2                 0  
     115  hru0115                    hru       115     3.7476E-2                 0  
     116  hru0116                    hru       116     1.5723E-2                 0  
     117  hru0117                    hru       117     1.4576E-1                 0  
     118  hru0118                    hru       118     5.7537E-2                 0  
     119  hru0119                    hru       119     1.9016E-2                 0  
     120  hru0120                    hru       120     4.4746E-2                 0  
     121  hru0121                    hru       121     5.1283E-2                 0  
     122  hru0122                    hru       122     8.2484E-2                 0  
     123  hru0123                    hru       123     3.2123E-2                 0  
     124  hru0124                    hru       124     1.0657E-2                 0  
     125  hru0125                    hru       125     2.5406E-2                 0  
     126  hru0126                    hru       126     2.8951E-2                 0  
     127  hru0127                    hru       127     3.3792E-2                 0  
     128  hru0128                    hru       128     7.1194E-2                 0  
     129  hru0129                    hru       129     2.1236E-1                 0  
     130  hru0130                    hru       130     2.3184E-2                 0  
     131  hru0131                    hru       131     5.4017E-2                 0  
     132  hru0132                    hru       132     2.1214E-1                 0  
     133  hru0133                    hru       133     3.0461E-2                 0  
     134  hru0134                    hru       134     1.3090E-2                 0  
     135  hru0135                    hru       135     1.1872E-1                 0  
     136  hru0136                    hru       136     1.8733E-2                 0  
     137  hru0137                    hru       137     4.0178E-2                 0  
     138  hru0138                    hru       138     1.1979E-1                 0  
     139  hru0139                    hru       139     8.4649E-3                 0  
     140  hru0140                    hru       140     4.0919E-3                 0  
     141  hru0141                    hru       141     3.1812E-2                 0  
     142  hru0142                    hru       142     6.5311E-3                 0  
     143  hru0143                    hru       143     1.7644E-3                 0  
     144  hru0144                    hru       144     4.5346E-2                 0  
     145  hru0145                    hru       145     1.6003E-2                 0  
     146  hru0146                    hru       146     1.9689E-2                 0  
     147  hru0147                    hru       147     1.5117E-2                 0  
     148  hru0148                    hru       148     4.3893E-2                 0  
     149  hru0149                    hru       149     8.1175E-2                 0  
     150  hru0150                    hru       150     2.8496E-2                 0  
     151  hru0151                    hru       151     2.6250E-2                 0  
     152  hru0152                    hru       152     3.4846E-2                 0  
     153  hru0153                    hru       153     7.6918E-2                 0  
     154  hru0154                    hru       154     2.7071E-2                 0  
     155  hru0155                    hru       155     7.1069E-2                 0  
     156  hru0156                    hru       156     2.9557E-2                 0  
     157  hru0157                    hru       157     4.0536E-2                 0  
     158  hru0158                    hru       158     9.2803E-2                 0  
     159  hru0159                    hru       159     1.5400E-2                 0  
     160  hru0160                    hru       160     3.9890E-2                 0  
     161  hru0161                    hru       161     1.6522E-2                 0  
     162  hru0162                    hru       162     2.3274E-2                 0  
     163  hru0163                    hru       163     5.2401E-2                 0  
     164  hru0164                    hru       164     2.6825E-2                 0  
     165  hru0165                    hru       165     5.7789E-3                 0  
     166  hru0166                    hru       166     9.7526E-2                 0  
     167  hru0167                    hru       167     1.5220E-2                 0  
     168  hru0168                    hru       168     3.2598E-3                 0  
     169  hru0169                    hru       169     5.5489E-2                 0  
     170  hru0170                    hru       170     8.6487E-2                 0  
     171  hru0171                    hru       171     1.8360E-2                 0  
     172  hru0172                    hru       172     6.7716E-2                 0  
     173  hru0173                    hru       173     1.0435E-1                 0  
     174  hru0174                    hru       174     1.0773E-2                 0  
     175  hru0175                    hru       175     4.7589E-2                 0  
     176  hru0176                    hru       176     3.7948E-2                 0  
     177  hru0177                    hru       177     5.8314E-2                 0  
     178  hru0178                    hru       178     5.9380E-2                 0  
     179  hru0179                    hru       179     1.1937E-2                 0  
     180  hru0180                    hru       180     2.7582E-2                 0  
     181  hru0181                    hru       181     6.1378E-2                 0  
     182  hru0182                    hru       182     1.0628E-1                 0  
     183  hru0183                    hru       183     2.0906E-2                 0  
     184  hru0184                    hru       184     4.8734E-2                 0  
     185  hru0185                    hru       185     1.1032E-1                 0  
     186  hru0186                    hru       186     2.8566E-2                 0  
     187  hru0187                    hru       187     7.3059E-3                 0  
     188  hru0188                    hru       188     1.7377E-2                 0  
     189  hru0189                    hru       189     3.6695E-2                 0  
     190  hru0190                    hru       190     1.9606E-2                 0  
     191  hru0191                    hru       191     1.2386E-2                 0  
     192  hru0192                    hru       192     4.4897E-1                 0  
     193  hru0193                    hru       193     1.6801E-1                 0  
     194  hru0194                    hru       194     3.3424E-1                 0  
     195  hru0195                    hru       195     1.2809E-2                 0  
     196  hru0196                    hru       196     3.0589E-3                 0  
     197  hru0197                    hru       197     1.2833E-2                 0  
     198  hru0198                    hru       198     4.4738E-3                 0  
     199  hru0199                    hru       199     8.9256E-3                 0  
     200  hru0200                    hru       200     2.8117E-3                 0  
     201  hru0201                    hru       201     4.6099E-3                 0  
     202  hru0202                    hru       202     3.9282E-2                 0  
     203  hru0203                    hru       203     1.6305E-2                 0  
     204  hru0204                    hru       204     4.0491E-2                 0  
     205  hru0205                    hru       205     8.3990E-2                 0  
     206  hru0206                    hru       206     6.9285E-2                 0  
     207  hru0207                    hru       207     2.9177E-2                 0  
     208  hru0208                    hru       208     7.1151E-2                 0  
     209  hru0209                    hru       209     1.4730E-1                 0  
     210  hru0210                    hru       210     5.2262E-2                 0  
     211  hru0211                    hru       211     2.4623E-2                 0  
     212  hru0212                    hru       212     6.0508E-2                 0  
     213  hru0213                    hru       213     1.3611E-1                 0  
     214  hru0214                    hru       214     2.9302E-2                 0  
     215  hru0215                    hru       215     1.4030E-2                 0  
     216  hru0216                    hru       216     3.4146E-2                 0  
     217  hru0217                    hru       217     7.6108E-2                 0  
     218  hru0218                    hru       218     5.3750E-3                 0  
     219  hru0219                    hru       219     2.7672E-3                 0  
     220  hru0220                    hru       220     7.9526E-3                 0  
     221  hru0221                    hru       221     1.2081E-2                 0  
     222  hru0222                    hru       222     3.9862E-2                 0  
     223  hru0223                    hru       223     8.9580E-3                 0  
     224  hru0224                    hru       224     5.9503E-2                 0  
     225  hru0225                    hru       225     7.2013E-2                 0  
     226  hru0226                    hru       226     1.0591E-1                 0  
     227  hru0227                    hru       227     1.2984E-1                 0  
     228  hru0228                    hru       228     2.7565E-2                 0  
     229  hru0229                    hru       229     7.5816E-3                 0  
     230  hru0230                    hru       230     1.5374E-2                 0  
     231  hru0231                    hru       231     2.9476E-3                 0  
     232  hru0232                    hru       232     5.9897E-3                 0  
     233  hru0233                    hru       233     3.7568E-3                 0  
     234  hru0234                    hru       234     4.1424E-3                 0  
     235  hru0235                    hru       235     7.9658E-2                 0  
     236  hru0236                    hru       236     8.5121E-2                 0  
     237  hru0237                    hru       237     1.4260E-1                 0  
     238  hru0238                    hru       238     1.4942E-1                 0  
     239  hru0239                    hru       239     2.8193E-2                 0  
     240  hru0240                    hru       240     5.7098E-3                 0  
     241  hru0241                    hru       241     2.3093E-2                 0  
     242  hru0242                    hru       242     1.0131E-2                 0  
     243  hru0243                    hru       243     2.2993E-2                 0  
     244  hru0244                    hru       244     5.4433E-3                 0  
     245  hru0245                    hru       245     8.0880E-3                 0  
     246  hru0246                    hru       246     4.9207E-3                 0  
     247  hru0247                    hru       247     6.0897E-2                 0  
     248  hru0248                    hru       248     2.3775E-2                 0  
     249  hru0249                    hru       249     7.9414E-2                 0  
     250  hru0250                    hru       250     7.9805E-2                 0  
     251  hru0251                    hru       251     3.4259E-2                 0  
     252  hru0252                    hru       252     1.3571E-2                 0  
     253  hru0253                    hru       253     4.4695E-2                 0  
     254  hru0254                    hru       254     4.4847E-2                 0  
     255  hru0255                    hru       255     8.2306E-2                 0  
     256  hru0256                    hru       256     2.6913E-2                 0  
     257  hru0257                    hru       257     1.3609E-1                 0  
     258  hru0258                    hru       258     1.1155E-1                 0  
     259  hru0259                    hru       259     1.5185E-2                 0  
     260  hru0260                    hru       260     4.5807E-2                 0  
     261  hru0261                    hru       261     7.6611E-2                 0  
     262  hru0262                    hru       262     6.2452E-2                 0  
     263  hru0263                    hru       263     3.4031E-2                 0  
     264  hru0264                    hru       264     1.2906E-2                 0  
     265  hru0265                    hru       265     1.5115E-2                 0  
     266  hru0266                    hru       266     2.1006E-2                 0  
     267  hru0267                    hru       267     6.8927E-2                 0  
     268  hru0268                    hru       268     1.3915E-1                 0  
     269  hru0269                    hru       269     3.8482E-2                 0  
     270  hru0270                    hru       270     1.1431E-2                 0  
     271  hru0271                    hru       271     7.8203E-2                 0  
     272  hru0272                    hru       272     5.2338E-2                 0  
     273  hru0273                    hru       273     1.8166E-2                 0  
     274  hru0274                    hru       274     7.8427E-2                 0  
     275  hru0275                    hru       275     9.3238E-2                 0  
     276  hru0276                    hru       276     3.2326E-2                 0  
     277  hru0277                    hru       277     1.3845E-1                 0  
     278  hru0278                    hru       278     1.0179E-2                 0  
     279  hru0279                    hru       279     9.8131E-3                 0  
     280  hru0280                    hru       280     3.5258E-2                 0  
     281  hru0281                    hru       281     8.9367E-3                 0  
     282  hru0282                    hru       282     1.3140E-2                 0  
     283  hru0283                    hru       283     6.6981E-3                 0  
     284  hru0284                    hru       284     2.3515E-2                 0  
     285  hru0285                    hru       285     6.8116E-3                 0  
     286  hru0286                    hru       286     7.5802E-3                 0  
     287  hru0287                    hru       287     4.9453E-3                 0  
     288  hru0288                    hru       288     1.3349E-2                 0  
     289  hru0289                    hru       289     3.3536E-2                 0  
     290  hru0290                    hru       290     9.6609E-3                 0  
     291  hru0291                    hru       291     9.7626E-3                 0  
     292  hru0292                    hru       292     1.0810E-2                 0  
     293  hru0293                    hru       293     1.9105E-2                 0  
     294  hru0294                    hru       294     7.1931E-3                 0  
     295  hru0295                    hru       295     1.9354E-2                 0  
     296  hru0296                    hru       296     2.6847E-2                 0  
     297  hru0297                    hru       297     1.1987E-2                 0  
     298  hru0298                    hru       298     3.4700E-2                 0  
     299  hru0299                    hru       299     4.8235E-2                 0  
     300  hru0300                    hru       300     2.1115E-2                 0  
     301  hru0301                    hru       301     2.0022E-2                 0  
     302  hru0302                    hru       302     2.0361E-2                 0  
     303  hru0303                    hru       303     3.6414E-2                 0  
     304  hru0304                    hru       304     3.0375E-2                 0  
     305  hru0305                    hru       305     1.7479E-2                 0  
     306  hru0306                    hru       306     1.1340E-2                 0  
     307  hru0307                    hru       307     5.5551E-3                 0  
     308  hru0308                    hru       308     2.3614E-2                 0  
     309  hru0309                    hru       309     3.7543E-2                 0  
     310  hru0310                    hru       310     1.5399E-2                 0  
     311  hru0311                    hru       311     4.5677E-3                 0  
     312  hru0312                    hru       312     1.6122E-2                 0  
     313  hru0313                    hru       313     1.3386E-2                 0  
     314  hru0314                    hru       314     2.1157E-2                 0  
     315  hru0315                    hru       315     8.9554E-3                 0  
     316  hru0316                    hru       316     2.5930E-3                 0  
     317  hru0317                    hru       317     8.9770E-3                 0  
     318  hru0318                    hru       318     5.4607E-2                 0  
     319  hru0319                    hru       319     3.1475E-2                 0  
     320  hru0320                    hru       320     2.0379E-2                 0  
     321  hru0321                    hru       321     9.9511E-3                 0  
     322  hru0322                    hru       322     1.3440E-2                 0  
     323  hru0323                    hru       323     1.0773E-2                 0  
     324  hru0324                    hru       324     1.9763E-2                 0  
     325  hru0325                    hru       325     4.9598E-3                 0  
     326  hru0326                    hru       326     3.6152E-3                 0  
     327  hru0327                    hru       327     4.9934E-3                 0  
     328  hru0328                    hru       328     8.7125E-3                 0  
     329  hru0329                    hru       329     7.2982E-3                 0  
     330  hru0330                    hru       330     5.7274E-3                 0  
     331  hru0331                    hru       331     1.6121E-2                 0  
     332  hru0332                    hru       332     3.5878E-2                 0  
     333  hru0333                    hru       333     6.1051E-3                 0  
     334  hru0334                    hru       334     1.1184E-2                 0  
     335  hru0335                    hru       335     1.0336E-2                 0  
     336  hru0336                    hru       336     8.2492E-3                 0  
     337  hru0337                    hru       337     1.2712E-2                 0  
     338  hru0338                    hru       338     2.3352E-2                 0  
     339  hru0339                    hru       339     5.1632E-2                 0  
     340  hru0340                    hru       340     8.8431E-3                 0  
     341  hru0341                    hru       341     1.6164E-2                 0  
     342  hru0342                    hru       342     6.1514E-3                 0  
     343  hru0343                    hru       343     6.1300E-3                 0  
     344  hru0344                    hru       344     5.5042E-3                 0  
     345  hru0345                    hru       345     3.2393E-3                 0  
     346  hru0346                    hru       346     2.8510E-3                 0  
     347  hru0347                    hru       347     3.2699E-3                 0  