sediment.cha: written by SWAT+ editor v1.2.3 on 2020-04-22 07:41
name                           eqn          cov1          cov2        bnk_bd        bed_bd        bnk_kd        bed_kd       bnk_D50       bed_d50        tc_bnk        tc_bed         kod_a         kod_b         kod_c         kod_d      pdep_alt         erod1         erod2         erod3         erod4         erod5         erod6         erod7         erod8         erod9        erod10        erod11        erod12
sedcha1                          2       0.60000       1.00000       0.00000       0.00000       2.50000       2.50000     250.00000     250.00000      12.00000      12.00000     115.00000       3.90000       0.85000       0.00000       1.00000       1.00000       1.00000       1.00000       1.00000       1.00000       1.00000       1.00000       1.00000       1.00000       1.00000       1.00000       1.00000
sedcha2                          2       0.60000       1.00000       0.00000       0.00000       0.40000       0.40000     250.00000     250.00000      13.00000      13.00000     430.00000       3.80000       0.90000       0.00000       1.00000       1.00000       1.00000       1.00000       1.00000       1.00000       1.00000       1.00000       1.00000       1.00000       1.00000       1.00000       1.00000
sedcha3                          2       0.60000       1.00000       0.00000       0.00000       2.00000       2.00000     250.00000     250.00000      10.00000      10.00000     125.00000       3.70000       0.70000       0.00000       1.00000       1.00000       1.00000       1.00000       1.00000       1.00000       1.00000       1.00000       1.00000       1.00000       1.00000       1.00000       1.00000
sedcha4                          2       0.60000       1.00000       0.00000       0.00000       0.40000       0.40000     250.00000     250.00000       5.00000       5.00000     450.00000       3.20000       0.75000       0.00000       1.00000       1.00000       1.00000       1.00000       1.00000       1.00000       1.00000       1.00000       1.00000       1.00000       1.00000       1.00000       1.00000
sedcha5                          2       0.60000       1.00000       0.00000       0.00000       0.70000       0.70000     250.00000     250.00000       3.30000       3.30000     520.00000       3.00000       0.75000       0.00000       1.00000       1.00000       1.00000       1.00000       1.00000       1.00000       1.00000       1.00000       1.00000       1.00000       1.00000       1.00000       1.00000