time.sim: written by SWAT+ editor v1.2.3 on 2020-11-02 07:04
day_start  yrc_start   day_end   yrc_end      step  
       0      2001         0      2020         0  
