weather-wgn.cli: written by SWAT+ editor v1.2.3 on 2020-11-02 07:04
ILFARMERCITY                   40.23000     -88.63000     222.50000        10  
 tmp_max_ave   tmp_min_ave    tmp_max_sd    tmp_min_sd       pcp_ave        pcp_sd      pcp_skew       wet_dry       wet_wet      pcp_days       pcp_hhr       slr_ave       dew_ave       wnd_ave  
    -0.03000      -9.94000       6.76000       7.74000      49.60000       8.90000       0.85000       0.17000       0.36000       6.51000      11.40000       5.61000      -5.89000       5.39000  
     2.90000      -7.31000       6.63000       7.39000      38.80000       7.60000       1.87000       0.18000       0.36000       6.37000      11.20000       8.34000      -5.05000       5.43000  
     9.95000      -1.23000       6.88000       5.84000      74.00000       9.40000       0.61000       0.21000       0.45000       8.57000      13.20000      12.15000      -1.29000       5.78000  
    17.78000       4.73000       6.12000       5.34000      94.30000      13.70000       1.00000       0.22000       0.42000       8.25000      29.20000      16.05000       4.51000       5.79000  
    23.73000      10.36000       5.33000       5.01000      72.90000       8.60000      -1.26000       0.18000       0.48000       7.97000      19.30000      19.94000       9.05000       5.02000  
    28.74000      15.47000       3.74000       3.96000      90.70000      12.70000       0.01000       0.20000       0.41000       7.59000      51.30000      21.79000      15.45000       4.33000  
    30.28000      17.67000       3.21000       3.49000     104.60000      17.80000       0.71000       0.18000       0.34000       6.64000      45.00000      22.00000      17.81000       3.71000  
    28.91000      16.23000       3.27000       3.79000      91.10000      17.50000       1.68000       0.19000       0.32000       6.77000      41.70000      19.57000      17.38000       3.51000  
    25.85000      12.34000       4.36000       5.02000      79.60000      12.70000       0.09000       0.18000       0.37000       6.67000      27.20000      16.13000      12.52000       3.97000  
    19.39000       6.23000       5.76000       5.52000      57.90000      13.50000       2.28000       0.14000       0.36000       5.56000      12.70000      11.27000       6.71000       4.37000  
    10.81000       0.39000       6.39000       5.69000      57.20000       8.90000       0.88000       0.19000       0.38000       7.04000       8.40000       7.12000       0.04000       5.18000  
     2.96000      -6.06000       6.53000       7.21000      71.50000      11.90000       2.51000       0.22000       0.42000       8.52000       8.10000       4.99000      -4.49000       5.21000  
ILPANA                         39.38000     -89.08000     213.40000        10  
 tmp_max_ave   tmp_min_ave    tmp_max_sd    tmp_min_sd       pcp_ave        pcp_sd      pcp_skew       wet_dry       wet_wet      pcp_days       pcp_hhr       slr_ave       dew_ave       wnd_ave  
     2.62000      -6.75000       6.89000       7.04000      55.60000       9.10000       2.08000       0.22000       0.41000       8.42000       9.40000       6.12000      -5.60000       5.20000  
     4.74000      -5.12000       6.81000       6.52000      54.00000       8.10000       0.90000       0.22000       0.41000       7.88000       8.90000       9.30000      -4.44000       5.26000  
    11.27000       0.08000       7.25000       5.83000      85.00000       9.90000       0.92000       0.27000       0.42000       9.85000      13.20000      13.11000      -0.86000       5.63000  
    18.19000       5.83000       6.11000       5.30000      93.90000      10.40000       1.19000       0.29000       0.49000      10.88000      26.40000      16.97000       5.28000       5.53000  
    23.81000      11.41000       5.08000       4.79000     107.40000      12.40000       1.90000       0.28000       0.50000      11.13000      24.60000      20.91000       9.89000       4.63000  
    28.76000      16.43000       4.22000       3.88000     109.20000      15.00000       3.38000       0.26000       0.48000      10.00000      38.10000      22.79000      16.26000       4.02000  
    31.23000      18.66000       3.54000       3.27000      88.40000      13.50000       1.37000       0.23000       0.37000       8.29000      44.20000      22.92000      18.48000       3.38000  
    30.02000      17.62000       3.73000       3.46000      96.30000      15.70000       1.76000       0.21000       0.42000       8.24000      41.70000      20.57000      17.78000       3.18000  
    26.46000      13.71000       4.85000       4.94000      84.20000      13.50000       2.52000       0.21000       0.45000       8.29000      25.70000      17.26000      12.93000       3.66000  
    20.02000       7.48000       5.93000       5.33000      72.80000      12.70000       2.28000       0.19000       0.45000       7.96000      10.90000      12.28000       7.09000       4.09000  
    11.48000       1.04000       6.57000       5.76000      67.10000      10.90000       1.76000       0.22000       0.42000       8.25000      14.70000       8.04000       0.28000       4.98000  
     4.48000      -4.43000       6.49000       6.47000      66.60000       9.90000       1.65000       0.22000       0.44000       8.74000       6.10000       5.74000      -3.89000       5.08000  
ILWINDSOR                      39.43000     -88.60000     210.30000        10  
 tmp_max_ave   tmp_min_ave    tmp_max_sd    tmp_min_sd       pcp_ave        pcp_sd      pcp_skew       wet_dry       wet_wet      pcp_days       pcp_hhr       slr_ave       dew_ave       wnd_ave  
     2.56000      -7.10000       6.73000       7.28000      60.50000      10.20000       2.16000       0.21000       0.39000       7.94000       9.40000       5.99000      -5.19000       5.12000  
     4.78000      -5.36000       6.68000       6.71000      53.30000       7.90000       0.14000       0.23000       0.34000       7.49000       8.90000       9.13000      -4.33000       5.15000  
    11.04000      -0.34000       7.21000       5.87000      90.00000      11.20000       1.57000       0.27000       0.42000       9.85000      13.20000      12.99000      -0.71000       5.61000  
    18.12000       5.39000       6.14000       5.41000      96.50000      11.20000       1.29000       0.27000       0.46000      10.00000      26.70000      16.80000       5.33000       5.39000  
    23.86000      10.88000       5.15000       4.98000     113.00000      12.70000       1.44000       0.28000       0.48000      10.85000      24.40000      20.74000       9.84000       4.33000  
    28.99000      15.91000       4.22000       4.02000     112.50000      15.50000       1.96000       0.26000       0.45000       9.63000      38.60000      22.67000      16.24000       3.82000  
    31.37000      17.95000       3.43000       3.61000      93.90000      14.70000       1.79000       0.22000       0.39000       8.22000      44.50000      22.79000      18.47000       3.17000  
    30.36000      16.93000       3.66000       3.86000      85.50000      14.20000       1.14000       0.20000       0.39000       7.65000      41.70000      20.41000      17.78000       2.97000  
    26.99000      13.11000       4.92000       5.15000      88.40000      15.50000       1.78000       0.20000       0.39000       7.41000      25.70000      17.05000      12.91000       3.49000  
    20.32000       6.78000       5.97000       5.49000      74.40000      13.20000       2.17000       0.17000       0.45000       7.32000      11.20000      12.11000       7.13000       3.88000  
    11.54000       0.61000       6.59000       5.89000      71.10000      11.70000       1.81000       0.21000       0.40000       7.78000      15.70000       7.88000       0.33000       4.85000  
     4.54000      -4.70000       6.40000       6.59000      68.20000      10.90000       2.44000       0.21000       0.41000       8.14000       6.10000       5.66000      -3.78000       4.94000  
