wetland.wet: written by SWAT+ editor v1.2.3 on 2020-11-02 07:04
      id  name                          init               hyd               rel               sed               nut  
       1  wet0863                   initwet1        hydwet0863           wetland           sedwet1           nutwet1  
